@<TRIPOS>MOLECULE
HM1
   72    76     1     0     0
SMALL
RESP Charge
 
 
@<TRIPOS>ATOM
      1 CHA        66.9030   51.6890   20.6800 ce        1 HM1     -0.052619
      2 CHB        65.1150   56.0470   21.7430 ce        1 HM1     -0.188172
      3 CHC        63.9740   56.7160   17.0570 ce        1 HM1     -0.129940
      4 CHD        65.8490   52.3850   16.0130 ce        1 HM1     -0.110319
      5 C1A        66.5010   52.8030   21.3540 cc        1 HM1      0.014204
      6 C2A        66.5940   52.9540   22.7520 cc        1 HM1     -0.069463
      7 C3A        66.1000   54.1830   23.0530 cd        1 HM1     -0.012646
      8 C4A        65.7020   54.7960   21.8440 cd        1 HM1     -0.065914
      9 CMA        66.0170   54.7730   24.4380 c3        1 HM1     -0.077217
     10 CAA        67.1740   51.9490   23.7270 c3        1 HM1     -0.115590
     11 CBA        66.3050   50.6910   23.8840 c3        1 HM1      0.100722
     12 CGA        65.0950   50.9370   24.7460 c         1 HM1      0.607388
     13 O1A        63.9440   50.7910   24.2700 o         1 HM1     -0.705886
     14 O2A        65.2410   51.2690   25.9420 o         1 HM1     -0.725516
     15 C1B        64.6460   56.6150   20.5440 cc        1 HM1     -0.118788
     16 C2B        64.0390   57.9010   20.4580 cc        1 HM1      0.141867
     17 C3B        63.7060   58.1260   19.1440 cd        1 HM1     -0.054102
     18 C4B        64.1340   56.8960   18.4330 cd        1 HM1     -0.010110
     19 CMB        63.8300   58.8490   21.6070 c3        1 HM1     -0.081446
     20 CAB        63.0330   59.2840   18.4830 cf        1 HM1     -0.158608
     21 CBB        62.4890   60.3410   19.0840 c2        1 HM1     -0.350321
     22 C1C        64.3810   55.5950   16.3440 cc        1 HM1     -0.058214
     23 C2C        64.1500   55.3840   14.9760 cc        1 HM1      0.019341
     24 C3C        64.6880   54.1510   14.6400 cd        1 HM1     -0.064701
     25 C4C        65.2410   53.5990   15.8490 cd        1 HM1     -0.030815
     26 CMC        63.4730   56.3150   13.9870 c3        1 HM1     -0.066284
     27 CAC        64.5470   53.6220   13.2590 cf        1 HM1     -0.100462
     28 CBC        64.6140   52.3370   12.9190 c2        1 HM1     -0.358796
     29 C1D        66.2820   51.8830   17.2410 cc        1 HM1     -0.060468
     30 C2D        66.9250   50.5530   17.3300 cc        1 HM1      0.032521
     31 C3D        67.2260   50.3670   18.6230 cd        1 HM1     -0.071818
     32 C4D        66.7470   51.5740   19.3150 cd        1 HM1     -0.046505
     33 CMD        67.2300   49.5560   16.2280 c3        1 HM1     -0.035882
     34 CAD        67.8960   49.1430   19.2320 c3        1 HM1     -0.133607
     35 CBD        69.3620   49.4060   19.6220 c3        1 HM1     -0.020614
     36 CGD        70.3360   49.2790   18.4640 c         1 HM1      0.648577
     37 O1D        70.2610   48.3320   17.6490 o         1 HM1     -0.730218
     38 O2D        71.2580   50.1200   18.3100 o         1 HM1     -0.743187
     39 NA         65.9040   53.9100   20.8120 Y2        1 HM1      0.027031
     40 NB         64.6760   56.0640   19.3310 Y3        1 HM1     -0.023172
     41 NC         64.9830   54.4820   16.8650 Y4        1 HM1     -0.014646
     42 ND         66.1890   52.4580   18.4610 Y5        1 HM1     -0.014650
     43 HMA1       65.8920   54.0620   25.0860 hc        1 HM1      0.040545
     44 HMA2       65.2680   55.3870   24.4840 hc        1 HM1      0.040545
     45 HMA3       66.8380   55.2500   24.6370 hc        1 HM1      0.040545
     46 HMB1       63.8580   59.7630   21.2820 hc        1 HM1      0.029620
     47 HMB2       64.5300   58.7190   22.2660 hc        1 HM1      0.029620
     48 HMB3       62.9670   58.6780   22.0150 hc        1 HM1      0.029620
     49 HMC1       62.8130   56.8550   14.4500 hc        1 HM1      0.022273
     50 HMC2       63.0350   55.7920   13.2970 hc        1 HM1      0.022273
     51 HMC3       64.1370   56.8940   13.5810 hc        1 HM1      0.022273
     52 HMD1       68.0190   49.0430   16.4640 hc        1 HM1      0.023340
     53 HMD2       67.3900   50.0310   15.3970 hc        1 HM1      0.023340
     54 HMD3       66.4760   48.9560   16.1170 hc        1 HM1      0.023340
     55 HBB1       62.0750   61.0400   18.5540 ha        1 HM1      0.129916
     56 HBB2       62.5070   60.4110   20.0510 ha        1 HM1      0.129916
     57 HBC1       64.5110   52.0750   11.9910 ha        1 HM1      0.126143
     58 HBC2       64.7660   51.6630   13.5990 ha        1 HM1      0.126143
     59 HBA1       66.8370   49.9790   24.2730 hc        1 HM1     -0.045875
     60 HBA2       66.0190   50.3860   23.0090 hc        1 HM1     -0.045875
     61 HAA1       67.2810   52.3720   24.5930 hc        1 HM1      0.047439
     62 HAA2       68.0590   51.6890   23.4270 hc        1 HM1      0.047439
     63 HBD1       69.6190   48.7830   20.3200 hc        1 HM1     -0.019564
     64 HBD2       69.4330   50.2980   19.9970 hc        1 HM1     -0.019564
     65 HAD1       67.8600   48.4090   18.5990 hc        1 HM1      0.063843
     66 HAD2       67.4000   48.8640   20.0180 hc        1 HM1      0.063843
     67 HHA        67.2920   50.9890   21.1530 ha        1 HM1      0.153694
     68 HHB        65.0250   56.5460   22.5220 ha        1 HM1      0.199593
     69 HHC        63.5630   57.4010   16.5810 ha        1 HM1      0.112061
     70 HHD        65.9830   51.8600   15.2570 ha        1 HM1      0.134134
     71 HAB        62.9870   59.2640   17.5140 ha        1 HM1      0.148691
     72 HAC        64.3940   54.2640   12.5480 ha        1 HM1      0.123991
@<TRIPOS>BOND
     1    1    5 1
     2    1   32 1
     3    1   67 1
     4    2    8 1
     5    2   15 1
     6    2   68 1
     7    3   18 1
     8    3   22 1
     9    3   69 1
    10    4   25 1
    11    4   29 1
    12    4   70 1
    13    5    6 1
    14    5   39 1
    15    6    7 1
    16    6   10 1
    17    7    8 1
    18    7    9 1
    19    8   39 1
    20    9   43 1
    21    9   44 1
    22    9   45 1
    23   10   11 1
    24   10   61 1
    25   10   62 1
    26   11   12 1
    27   11   59 1
    28   11   60 1
    29   12   13 1
    30   12   14 1
    31   15   16 1
    32   15   40 1
    33   16   17 1
    34   16   19 1
    35   17   18 1
    36   17   20 1
    37   18   40 1
    38   19   46 1
    39   19   47 1
    40   19   48 1
    41   20   21 1
    42   20   71 1
    43   21   55 1
    44   21   56 1
    45   22   23 1
    46   22   41 1
    47   23   24 1
    48   23   26 1
    49   24   25 1
    50   24   27 1
    51   25   41 1
    52   26   49 1
    53   26   50 1
    54   26   51 1
    55   27   28 1
    56   27   72 1
    57   28   57 1
    58   28   58 1
    59   29   30 1
    60   29   42 1
    61   30   31 1
    62   30   33 1
    63   31   32 1
    64   31   34 1
    65   32   42 1
    66   33   52 1
    67   33   53 1
    68   33   54 1
    69   34   35 1
    70   34   65 1
    71   34   66 1
    72   35   36 1
    73   35   63 1
    74   35   64 1
    75   36   37 1
    76   36   38 1
@<TRIPOS>SUBSTRUCTURE
     1 HM1         1 TEMP              0 ****  ****    0 ROOT
