@<TRIPOS>MOLECULE
ML1
   53    56     1     0     0
SMALL
RESP Charge
 
 
@<TRIPOS>ATOM
      1 C11        58.5580   53.4090   17.6360 ca        1 ML1     -0.149316
      2 C10        57.2170   53.2490   17.3110 ca        1 ML1     -0.143310
      3 C9         56.3120   52.8370   18.2850 ca        1 ML1     -0.167713
      4 C8         56.7320   52.6540   19.6030 ca        1 ML1     -0.167544
      5 C7         58.0550   52.9050   19.9580 ca        1 ML1      0.202526
      6 C6         58.9840   53.2140   18.9530 ca        1 ML1      0.051149
      7 C5         60.4260   53.2940   19.2500 cc        1 ML1     -0.060239
      8 C4         61.5190   53.7690   18.5450 cd        1 ML1     -0.107994
      9 N3         62.6440   53.5080   19.1740 Y6        1 ML1     -0.079246
     10 C2         62.3180   52.9340   20.2990 cc        1 ML1     -0.012254
     11 N1         60.9730   52.7960   20.3990 na        1 ML1     -0.017380
     12 O1         58.4510   52.8220   21.2780 os        1 ML1     -0.284951
     13 C1         58.2960   54.0100   22.0570 c3        1 ML1     -0.021381
     14 C3         59.3820   54.2140   23.1230 c3        1 ML1      0.004504
     15 C12        59.5810   51.3400   26.3360 ca        1 ML1      0.078063
     16 C13        60.3030   51.1460   25.1640 ca        1 ML1     -0.121227
     17 C14        60.2230   52.0690   24.1290 ca        1 ML1     -0.099043
     18 C15        59.3880   53.1770   24.2390 ca        1 ML1      0.024052
     19 C16        58.6080   53.3450   25.3910 ca        1 ML1     -0.211410
     20 C17        58.7140   52.4350   26.4470 ca        1 ML1     -0.129620
     21 N2         59.9010   50.4750   27.3890 n         1 ML1     -0.287184
     22 C18        59.2000   50.1440   28.4850 c         1 ML1      0.464821
     23 O2         58.0040   50.3700   28.6470 o         1 ML1     -0.526899
     24 C19        59.9820   49.4510   29.6050 c3        1 ML1     -0.063800
     25 C20        62.2640   46.0300   28.3270 ca        1 ML1     -0.101786
     26 C21        62.7960   47.3070   28.1670 ca        1 ML1     -0.123324
     27 C22        62.0610   48.4150   28.5800 ca        1 ML1     -0.100629
     28 C23        60.7910   48.2420   29.1430 ca        1 ML1     -0.036146
     29 C24        60.2610   46.9590   29.2910 ca        1 ML1     -0.107381
     30 C25        61.0030   45.8520   28.8890 ca        1 ML1     -0.147738
     31 HN1        60.4370   52.4170   21.1730 hn        1 ML1      0.184840
     32 H9         55.2850   52.6770   18.0130 ha        1 ML1      0.113776
     33 H8         56.0330   52.3420   20.3620 ha        1 ML1      0.124245
     34 H4         61.5150   54.2610   17.5810 h4        1 ML1      0.124035
     35 H2         62.9780   52.5940   21.0880 h5        1 ML1      0.146802
     36 H11        59.2610   53.6940   16.8640 ha        1 ML1      0.132350
     37 H10        56.8930   53.4390   16.3010 ha        1 ML1      0.112201
     38 H1         57.3470   53.9710   22.5760 h1        1 ML1      0.053576
     39 H3         58.2900   54.8980   21.4250 h1        1 ML1      0.053576
     40 H5         59.2420   55.1930   23.5830 hc        1 ML1      0.044097
     41 H6         60.3650   54.2710   22.6540 hc        1 ML1      0.044097
     42 H7         60.9740   50.3070   25.0580 ha        1 ML1      0.138149
     43 H12        60.8260   51.9180   23.2480 ha        1 ML1      0.158363
     44 H13        57.9520   54.1970   25.4920 ha        1 ML1      0.103558
     45 H14        58.1680   52.6160   27.3600 ha        1 ML1      0.121218
     46 H15        60.8260   50.0840   27.3310 hn        1 ML1      0.268554
     47 H16        59.2860   49.1520   30.3900 hc        1 ML1      0.038155
     48 H17        60.6450   50.1890   30.0550 hc        1 ML1      0.038155
     49 H18        62.8370   45.1690   28.0130 ha        1 ML1      0.101742
     50 H19        63.7760   47.4390   27.7280 ha        1 ML1      0.132205
     51 H20        62.4880   49.4020   28.4670 ha        1 ML1      0.112997
     52 H21        59.2880   46.8180   29.7380 ha        1 ML1      0.113547
     53 H22        60.6020   44.8610   29.0170 ha        1 ML1      0.108856
@<TRIPOS>BOND
     1    1    2 1
     2    1    6 1
     3    1   36 1
     4    2    3 1
     5    2   37 1
     6    3    4 1
     7    3   32 1
     8    4    5 1
     9    4   33 1
    10    5    6 1
    11    5   12 1
    12    6    7 1
    13    7    8 1
    14    7   11 1
    15    8    9 1
    16    8   34 1
    17    9   10 1
    18   10   11 1
    19   10   35 1
    20   11   31 1
    21   12   13 1
    22   13   14 1
    23   13   38 1
    24   13   39 1
    25   14   18 1
    26   14   40 1
    27   14   41 1
    28   15   16 1
    29   15   20 1
    30   15   21 1
    31   16   17 1
    32   16   42 1
    33   17   18 1
    34   17   43 1
    35   18   19 1
    36   19   20 1
    37   19   44 1
    38   20   45 1
    39   21   22 1
    40   21   46 1
    41   22   23 1
    42   22   24 1
    43   24   28 1
    44   24   47 1
    45   24   48 1
    46   25   26 1
    47   25   30 1
    48   25   49 1
    49   26   27 1
    50   26   50 1
    51   27   28 1
    52   27   51 1
    53   28   29 1
    54   29   30 1
    55   29   52 1
    56   30   53 1
@<TRIPOS>SUBSTRUCTURE
     1 ML1         1 TEMP              0 ****  ****    0 ROOT
