@<TRIPOS>MOLECULE
ML1
   43    46     1     0     0
SMALL
RESP Charge
 
 
@<TRIPOS>ATOM
      1 C1         17.0720    4.7470   18.0170 cc        1 ML1     -0.149186
      2 H1         16.9570    5.1080   16.9810 h4        1 ML1      0.143961
      3 N1         18.1630    4.8110   18.7490 Y6        1 ML1     -0.030728
      4 C2         17.9330    4.2880   19.9400 cd        1 ML1      0.033569
      5 H2         18.6400    4.2500   20.7860 h5        1 ML1      0.128227
      6 N2         16.6870    3.8140   19.9280 na        1 ML1      0.057571
      7 C3         16.1320    4.1660   18.7590 cd        1 ML1     -0.005905
      8 C4         14.8510    3.7720   18.6980 ca        1 ML1      0.015242
      9 C5         13.9770    3.9370   17.7050 ca        1 ML1     -0.135040
     10 H3         14.2900    4.4360   16.7720 ha        1 ML1      0.117286
     11 C6         12.6730    3.4810   17.8450 ca        1 ML1     -0.215530
     12 H4         11.9500    3.6080   17.0220 ha        1 ML1      0.132422
     13 C7         12.2840    2.8640   19.0260 ca        1 ML1     -0.152783
     14 H5         11.2550    2.4870   19.1550 ha        1 ML1      0.115806
     15 C8         13.2190    2.7340   20.0360 ca        1 ML1      0.094165
     16 F1         12.8520    2.1220   21.2270 f         1 ML1     -0.151733
     17 C9         14.4600    3.2160   19.8610 ca        1 ML1      0.043792
     18 C10        15.5720    3.2070   20.6950 c3        1 ML1      0.042870
     19 H6         15.8440    2.1330   20.8210 h1        1 ML1      0.101823
     20 C11        15.3110    3.7470   22.1370 c3        1 ML1     -0.026219
     21 H7         14.3290    3.3780   22.5140 hc        1 ML1      0.035886
     22 H8         15.1090    4.8430   22.1070 hc        1 ML1      0.035886
     23 C12        16.4200    3.4400   23.1560 c3        1 ML1     -0.005222
     24 H9         16.5070    2.3350   23.2810 h1        1 ML1      0.067972
     25 O1         17.6720    3.9610   22.7060 oh        1 ML1     -0.453831
     26 H10        18.3570    3.7710   23.3360 ho        1 ML1      0.446520
     27 C13        16.0630    4.0780   24.5150 c3        1 ML1     -0.058345
     28 H11        15.0430    3.7520   24.8260 hc        1 ML1      0.039229
     29 C14        16.0940    5.5860   24.3720 c3        1 ML1     -0.040259
     30 H12        15.4370    5.9420   23.5450 hc        1 ML1      0.033994
     31 H13        17.0690    5.9490   23.9710 hc        1 ML1      0.033994
     32 C15        15.7430    6.2400   25.7050 c3        1 ML1     -0.058070
     33 H14        14.6940    6.0270   26.0160 hc        1 ML1      0.007670
     34 H15        15.6620    7.3490   25.6220 hc        1 ML1      0.007670
     35 C16        16.7440    5.8180   26.7510 c3        1 ML1     -0.034712
     36 H16        16.5810    6.3460   27.7190 hc        1 ML1      0.007687
     37 H17        17.7670    6.1990   26.5250 hc        1 ML1      0.007687
     38 C17        16.7270    4.3100   26.9200 c3        1 ML1     -0.052694
     39 H18        15.7600    3.9350   27.3290 hc        1 ML1      0.014013
     40 H19        17.3870    3.9640   27.7490 hc        1 ML1      0.014013
     41 C18        17.0820    3.6760   25.5870 c3        1 ML1     -0.068098
     42 H20        18.1260    3.9160   25.2780 hc        1 ML1      0.059638
     43 H21        17.1840    2.5690   25.6680 hc        1 ML1      0.059638
@<TRIPOS>BOND
     1    1    2 1
     2    1    3 1
     3    1    7 1
     4    3    4 1
     5    4    5 1
     6    4    6 1
     7    6    7 1
     8    6   18 1
     9    7    8 1
    10    8    9 1
    11    8   17 1
    12    9   10 1
    13    9   11 1
    14   11   12 1
    15   11   13 1
    16   13   14 1
    17   13   15 1
    18   15   16 1
    19   15   17 1
    20   17   18 1
    21   18   19 1
    22   18   20 1
    23   20   21 1
    24   20   22 1
    25   20   23 1
    26   23   24 1
    27   23   25 1
    28   23   27 1
    29   25   26 1
    30   27   28 1
    31   27   29 1
    32   27   41 1
    33   29   30 1
    34   29   31 1
    35   29   32 1
    36   32   33 1
    37   32   34 1
    38   32   35 1
    39   35   36 1
    40   35   37 1
    41   35   38 1
    42   38   39 1
    43   38   40 1
    44   38   41 1
    45   41   42 1
    46   41   43 1
@<TRIPOS>SUBSTRUCTURE
     1 ML1         1 TEMP              0 ****  ****    0 ROOT
