@<TRIPOS>MOLECULE
HD1
   17    17     1     0     0
SMALL
RESP Charge
 
 
@<TRIPOS>ATOM
      1 N          27.0460   -9.5670  -16.3600 N         1 HD1     -0.415700
      2 H          27.5790   -8.8620  -15.8720 H         1 HD1      0.220949
      3 CA         25.9330   -9.1410  -17.1770 CX        1 HD1      0.018800
      4 HA         25.0680   -9.7880  -17.0300 H1        1 HD1      0.093810
      5 CB         25.5590   -7.7280  -16.7570 CT        1 HD1     -0.094209
      6 HB2        25.0690   -7.6860  -15.7840 HC        1 HD1      0.070060
      7 HB3        26.4930   -7.1680  -16.7170 HC        1 HD1      0.070060
      8 CG         24.6730   -7.0100  -17.7110 CC        1 HD1     -0.039148
      9 ND1        25.1510   -6.4300  -18.8650 NA        1 HD1     -0.131135
     10 HD1        26.1140   -6.4680  -19.1680 H         1 HD1      0.254490
     11 CE1        24.1620   -5.8270  -19.4970 CR        1 HD1     -0.015033
     12 HE1        24.3320   -5.3160  -20.4440 H5        1 HD1      0.147238
     13 NE2        23.0660   -5.9820  -18.7840 Y1        1 HD1     -0.012351
     14 CD2        23.3580   -6.7060  -17.6540 CV        1 HD1     -0.077383
     15 HD2        22.5740   -6.9230  -16.9280 H4        1 HD1      0.142894
     16 C          26.2530   -9.2660  -18.6600 C         1 HD1      0.597300
     17 O          25.3520   -9.5620  -19.4550 O         1 HD1     -0.567900
@<TRIPOS>BOND
     1    1    2 1
     2    1    3 1
     3    3    4 1
     4    3    5 1
     5    3   16 1
     6    5    6 1
     7    5    7 1
     8    5    8 1
     9    8    9 1
    10    8   14 1
    11    9   10 1
    12    9   11 1
    13   11   12 1
    14   11   13 1
    15   13   14 1
    16   14   15 1
    17   16   17 1
@<TRIPOS>SUBSTRUCTURE
     1 HD1         1 TEMP              0 ****  ****    0 ROOT
