@<TRIPOS>MOLECULE
ML1
   41    44     1     0     0
SMALL
RESP Charge
 
 
@<TRIPOS>ATOM
      1 CAB        17.7860   -3.3430  -25.5200 c3        1 ML1     -0.050819
      2 HAB1       17.5740   -2.2510  -25.5920 hc        1 ML1      0.055572
      3 HAB2       18.8650   -3.2700  -25.2490 hc        1 ML1      0.055572
      4 CAC        17.5610   -4.0690  -26.8300 c3        1 ML1     -0.036400
      5 HAC1       18.0560   -3.5570  -27.6880 hc        1 ML1      0.000549
      6 HAC2       16.5070   -3.9860  -27.1840 hc        1 ML1      0.000549
      7 CAD        18.0170   -5.5390  -26.6800 c3        1 ML1     -0.008032
      8 HAD1       19.1130   -5.6250  -26.4910 hc        1 ML1      0.010077
      9 HAD2       17.9790   -6.0940  -27.6460 hc        1 ML1      0.010077
     10 CAE        17.1910   -6.2120  -25.5960 c3        1 ML1     -0.069077
     11 HAE1       17.4040   -7.3040  -25.5230 hc        1 ML1      0.008094
     12 HAE2       16.1120   -6.2770  -25.8700 hc        1 ML1      0.008094
     13 CAF        17.4040   -5.4970  -24.2710 c3        1 ML1     -0.024659
     14 HAF1       18.4530   -5.5800  -23.9020 hc        1 ML1      0.027396
     15 HAF2       16.9030   -6.0130  -23.4190 hc        1 ML1      0.027396
     16 CAA        16.9470   -4.0400  -24.4320 c3        1 ML1      0.013678
     17 HAA        15.8680   -4.0120  -24.7130 hc        1 ML1      0.008763
     18 CAG        17.1520   -3.3240  -23.0990 c         1 ML1      0.276288
     19 OAJ        18.2000   -2.7370  -22.8040 o         1 ML1     -0.290416
     20 CAH        15.9470   -3.4330  -22.1630 c3        1 ML1     -0.024976
     21 HAH1       15.5890   -4.4870  -22.0960 hc        1 ML1      0.025910
     22 HAH2       15.0450   -2.9630  -22.6190 hc        1 ML1      0.025910
     23 CAI        16.2180   -2.8570  -20.7690 c3        1 ML1      0.007219
     24 HAI        16.4540   -1.7730  -20.8780 h1        1 ML1      0.093853
     25 CAN        15.1280   -2.9830  -19.9140 ca        1 ML1      0.082876
     26 CAU        13.8630   -2.5570  -20.0480 ca        1 ML1      0.098722
     27 FAV        13.4950   -1.8960  -21.1950 f         1 ML1     -0.150623
     28 CAT        12.9210   -2.7840  -19.0510 ca        1 ML1     -0.165088
     29 HAT        11.8790   -2.4410  -19.1610 ha        1 ML1      0.120996
     30 CAS        13.3390   -3.4580  -17.9120 ca        1 ML1     -0.199296
     31 HAS        12.6240   -3.6700  -17.0990 ha        1 ML1      0.133223
     32 CAR        14.6630   -3.8640  -17.8020 ca        1 ML1     -0.144528
     33 HAR        15.0030   -4.3990  -16.8990 ha        1 ML1      0.119670
     34 CAM        15.5270   -3.6050  -18.7950 ca        1 ML1      0.016140
     35 CAL        16.8110   -3.9390  -18.9030 cc        1 ML1      0.018983
     36 NAK        17.3100   -3.4910  -20.0560 na        1 ML1      0.026174
     37 CAO        18.5800   -3.8820  -20.1530 cc        1 ML1     -0.035946
     38 HAO        19.2580   -3.7310  -21.0100 h5        1 ML1      0.170612
     39 NAP        18.8600   -4.4850  -19.0190 Y6        1 ML1      0.000758
     40 CAQ        17.7920   -4.5320  -18.2380 cd        1 ML1     -0.128560
     41 HAQ        17.7310   -4.9780  -17.2310 h4        1 ML1      0.141348
@<TRIPOS>BOND
     1    1    2 1
     2    1    3 1
     3    1    4 1
     4    1   16 1
     5    4    5 1
     6    4    6 1
     7    4    7 1
     8    7    8 1
     9    7    9 1
    10    7   10 1
    11   10   11 1
    12   10   12 1
    13   10   13 1
    14   13   14 1
    15   13   15 1
    16   13   16 1
    17   16   17 1
    18   16   18 1
    19   18   19 1
    20   18   20 1
    21   20   21 1
    22   20   22 1
    23   20   23 1
    24   23   24 1
    25   23   25 1
    26   23   36 1
    27   25   26 1
    28   25   34 1
    29   26   27 1
    30   26   28 1
    31   28   29 1
    32   28   30 1
    33   30   31 1
    34   30   32 1
    35   32   33 1
    36   32   34 1
    37   34   35 1
    38   35   36 1
    39   35   40 1
    40   36   37 1
    41   37   38 1
    42   37   39 1
    43   39   40 1
    44   40   41 1
@<TRIPOS>SUBSTRUCTURE
     1 ML1         1 TEMP              0 ****  ****    0 ROOT
