@<TRIPOS>MOLECULE
HD1
   17    17     1     0     0
SMALL
RESP Charge
 
 
@<TRIPOS>ATOM
      1 N          26.2350   10.2150   16.4220 N         1 HD1     -0.415700
      2 H          26.7370    9.5820   15.8170 H         1 HD1      0.245154
      3 CA         25.1560    9.6800   17.2360 CX        1 HD1      0.018800
      4 HA         24.2200   10.1980   17.0270 H1        1 HD1      0.103807
      5 CB         24.9830    8.2050   16.8960 CT        1 HD1     -0.231984
      6 HB2        24.6310    8.0730   15.8730 HC        1 HD1      0.113967
      7 HB3        25.9460    7.7080   17.0150 HC        1 HD1      0.113967
      8 CG         24.0220    7.4860   17.7730 CC        1 HD1     -0.022168
      9 ND1        24.4320    6.7320   18.8500 NA        1 HD1     -0.084563
     10 HD1        25.3930    6.6150   19.1380 H         1 HD1      0.308757
     11 CE1        23.3770    6.1960   19.4340 CR        1 HD1     -0.040117
     12 HE1        23.4900    5.5550   20.3090 H5        1 HD1      0.138995
     13 NE2        22.3000    6.5820   18.7770 Y1        1 HD1     -0.142895
     14 CD2        22.6730    7.3740   17.7220 CV        1 HD1     -0.040527
     15 HD2        21.9170    7.7720   17.0460 H4        1 HD1      0.127969
     16 C          25.4370    9.8910   18.7180 C         1 HD1      0.597300
     17 O          24.5250   10.1860   19.5020 O         1 HD1     -0.567900
@<TRIPOS>BOND
     1    1    2 1
     2    1    3 1
     3    3    4 1
     4    3    5 1
     5    3   16 1
     6    5    6 1
     7    5    7 1
     8    5    8 1
     9    8    9 1
    10    8   14 1
    11    9   10 1
    12    9   11 1
    13   11   12 1
    14   11   13 1
    15   13   14 1
    16   14   15 1
    17   16   17 1
@<TRIPOS>SUBSTRUCTURE
     1 HD1         1 TEMP              0 ****  ****    0 ROOT
