@<TRIPOS>MOLECULE
HM1
   72    76     1     0     0
SMALL
RESP Charge
 
 
@<TRIPOS>ATOM
      1 CAA        21.8190    2.5720   23.3470 c3        1 HM1     -0.020513
      2 CAB        17.9050   10.3590   18.6670 ce        1 HM1     -0.109633
      3 CAC        20.4270    5.2140   13.0550 ce        1 HM1     -0.103165
      4 CAD        22.9670    0.3160   18.6270 c3        1 HM1     -0.119072
      5 NA         20.8950    4.9040   20.5930 Y2        1 HM1      0.044698
      6 CBA        20.8320    1.3940   23.2930 c3        1 HM1      0.090965
      7 CBB        17.3240   11.3590   19.3340 c2        1 HM1     -0.386402
      8 CBC        19.8010    5.5870   11.9450 c2        1 HM1     -0.378757
      9 CBD        24.4240    0.5120   19.0590 c3        1 HM1      0.009585
     10 NB         19.7270    7.1880   19.2650 Y3        1 HM1      0.049968
     11 CGA        19.7060    1.5640   24.2810 c         1 HM1      0.567911
     12 CGD        25.3310    0.8380   17.8890 c         1 HM1      0.583863
     13 ND         21.4360    3.7520   18.1200 Y4        1 HM1      0.060129
     14 CHA        21.8110    2.6540   20.2920 cf        1 HM1     -0.071157
     15 CHB        20.0800    6.9550   21.6790 ce        1 HM1     -0.114748
     16 CHC        19.0630    7.9960   17.0270 ce        1 HM1     -0.097438
     17 CHD        21.4320    4.0110   15.6640 ce        1 HM1     -0.087443
     18 CMA        20.6920    5.4080   24.2840 c3        1 HM1     -0.163745
     19 CMB        18.6160    9.6870   21.7690 c3        1 HM1     -0.042549
     20 CMC        18.8330    7.9480   13.9250 c3        1 HM1      0.011255
     21 CMD        22.7150    1.2060   15.6110 c3        1 HM1     -0.140067
     22 C1A        21.3870    3.7100   21.0560 cc        1 HM1     -0.036602
     23 C1B        19.6210    7.6140   20.5250 cd        1 HM1     -0.016189
     24 C1C        19.6320    7.0100   16.2190 cd        1 HM1     -0.044104
     25 C1D        21.6900    3.3460   16.8580 cc        1 HM1     -0.024516
     26 O1A        18.6570    2.1560   23.9400 o         1 HM1     -0.494579
     27 O1D        26.0220    1.8810   17.9180 o         1 HM1     -0.512086
     28 C2A        21.3680    3.7160   22.4680 cc        1 HM1     -0.073763
     29 C2B        18.9330    8.8670   20.5430 cd        1 HM1      0.033026
     30 C2C        19.5370    6.9410   14.8140 cd        1 HM1      0.046857
     31 C2D        22.2880    2.0000   16.8310 cc        1 HM1      0.013856
     32 O2A        19.8080    1.1030   25.4390 o         1 HM1     -0.550902
     33 O2D        25.4070    0.0770   16.8960 o         1 HM1     -0.525513
     34 C3A        20.8900    4.9300   22.8630 cd        1 HM1      0.006627
     35 C3B        18.6250    9.1860   19.2410 cc        1 HM1     -0.051928
     36 C3C        20.2350    5.7970   14.4110 cc        1 HM1     -0.053309
     37 C3D        22.3920    1.6200   18.1140 cd        1 HM1     -0.077924
     38 C4A        20.6220    5.6780   21.6930 cd        1 HM1     -0.025814
     39 C4B        19.1530    8.0570   18.4270 cc        1 HM1     -0.057832
     40 C4C        20.7400    5.1890   15.6030 cc        1 HM1     -0.028997
     41 C4D        21.8390    2.7300   18.9090 cd        1 HM1     -0.006056
     42 NC         20.3160    5.9150   16.6720 Y5        1 HM1     -0.073382
     43 HMA1       20.4820    4.6520   24.8540 hc        1 HM1      0.062120
     44 HMA2       19.9620    6.0460   24.3120 hc        1 HM1      0.062120
     45 HMA3       21.5050    5.8330   24.5990 hc        1 HM1      0.062120
     46 HMB1       18.5960   10.6280   21.5330 hc        1 HM1      0.025578
     47 HMB2       19.2970    9.5370   22.4440 hc        1 HM1      0.025578
     48 HMB3       17.7510    9.4240   22.1200 hc        1 HM1      0.025578
     49 HMC1       19.2690    7.9760   13.0590 hc        1 HM1      0.009404
     50 HMC2       18.8730    8.8260   14.3350 hc        1 HM1      0.009404
     51 HMC3       17.9060    7.6870   13.8110 hc        1 HM1      0.009404
     52 HMD1       22.1550    1.4460   14.8560 hc        1 HM1      0.059780
     53 HMD2       22.6230    0.2580   15.7930 hc        1 HM1      0.059780
     54 HMD3       23.6410    1.4060   15.4020 hc        1 HM1      0.059780
     55 HBB1       16.8820   12.0730   18.8490 ha        1 HM1      0.150318
     56 HBB2       17.3440   11.3710   20.3040 ha        1 HM1      0.150318
     57 HBC1       19.9970    5.1430   11.1050 ha        1 HM1      0.144580
     58 HBC2       19.1480    6.3040   11.9740 ha        1 HM1      0.144580
     59 HBA1       21.3040    0.5670   23.4790 hc        1 HM1     -0.027868
     60 HBA2       20.4680    1.3170   22.3970 hc        1 HM1     -0.027868
     61 HAA1       21.9060    2.8810   24.2620 hc        1 HM1      0.025105
     62 HAA2       22.6970    2.2730   23.0640 hc        1 HM1      0.025105
     63 HBD1       24.7410   -0.2940   19.4970 hc        1 HM1     -0.005306
     64 HBD2       24.4720    1.2270   19.7120 hc        1 HM1     -0.005306
     65 HAD1       22.9160   -0.3620   17.9350 hc        1 HM1      0.072842
     66 HAD2       22.4410   -0.0040   19.3760 hc        1 HM1      0.072842
     67 HHA        22.0860    1.8700   20.7110 ha        1 HM1      0.142473
     68 HHB        20.0160    7.4070   22.4890 ha        1 HM1      0.140997
     69 HHC        18.5830    8.6700   16.6020 ha        1 HM1      0.125010
     70 HHD        21.7440    3.6380   14.8710 ha        1 HM1      0.114259
     71 HAB        17.8530   10.4000   17.6990 ha        1 HM1      0.136225
     72 HAC        21.0710    4.4930   12.9750 ha        1 HM1      0.142439
@<TRIPOS>BOND
     1    1    6 1
     2    1   28 1
     3    1   61 1
     4    1   62 1
     5    2    7 1
     6    2   35 1
     7    2   71 1
     8    3    8 1
     9    3   36 1
    10    3   72 1
    11    4    9 1
    12    4   37 1
    13    4   65 1
    14    4   66 1
    15    5   22 1
    16    5   38 1
    17    6   11 1
    18    6   59 1
    19    6   60 1
    20    7   55 1
    21    7   56 1
    22    8   57 1
    23    8   58 1
    24    9   12 1
    25    9   63 1
    26    9   64 1
    27   10   23 1
    28   10   39 1
    29   11   26 1
    30   11   32 1
    31   12   27 1
    32   12   33 1
    33   13   25 1
    34   13   41 1
    35   14   22 1
    36   14   41 1
    37   14   67 1
    38   15   23 1
    39   15   38 1
    40   15   68 1
    41   16   24 1
    42   16   39 1
    43   16   69 1
    44   17   25 1
    45   17   40 1
    46   17   70 1
    47   18   34 1
    48   18   43 1
    49   18   44 1
    50   18   45 1
    51   19   29 1
    52   19   46 1
    53   19   47 1
    54   19   48 1
    55   20   30 1
    56   20   49 1
    57   20   50 1
    58   20   51 1
    59   21   31 1
    60   21   52 1
    61   21   53 1
    62   21   54 1
    63   22   28 1
    64   23   29 1
    65   24   30 1
    66   24   42 1
    67   25   31 1
    68   28   34 1
    69   29   35 1
    70   30   36 1
    71   31   37 1
    72   34   38 1
    73   35   39 1
    74   36   40 1
    75   37   41 1
    76   40   42 1
@<TRIPOS>SUBSTRUCTURE
     1 HM1         1 TEMP              0 ****  ****    0 ROOT
