@<TRIPOS>MOLECULE
HD1
   17    17     1     0     0
SMALL
RESP Charge
 
 
@<TRIPOS>ATOM
      1 N          70.7840   58.6940   15.9640 N         1 HD1     -0.415700
      2 H          71.2240   57.9760   15.4060 H         1 HD1      0.223392
      3 CA         69.7210   58.3100   16.8550 CX        1 HD1      0.018800
      4 HA         68.8010   58.8510   16.6330 H1        1 HD1      0.086068
      5 CB         69.4730   56.8160   16.6440 CT        1 HD1     -0.052800
      6 HB2        69.1580   56.6330   15.6170 HC        1 HD1      0.063556
      7 HB3        70.3930   56.2660   16.8450 HC        1 HD1      0.063556
      8 CG         68.4180   56.2240   17.5270 CC        1 HD1     -0.072439
      9 ND1        68.7120   55.6310   18.7380 NA        1 HD1     -0.096406
     10 HD1        69.6460   55.5400   19.1380 H         1 HD1      0.267033
     11 CE1        67.5990   55.2000   19.2980 CR        1 HD1      0.004273
     12 HE1        67.6230   54.7010   20.2670 H5        1 HD1      0.138106
     13 NE2        66.5890   55.4880   18.4950 Y1        1 HD1     -0.075875
     14 CD2        67.0750   56.1230   17.3810 CV        1 HD1     -0.071721
     15 HD2        66.3920   56.4380   16.5920 H4        1 HD1      0.126224
     16 C          70.0580   58.6610   18.3100 C         1 HD1      0.597300
     17 O          69.1540   58.9570   19.0910 O         1 HD1     -0.567900
@<TRIPOS>BOND
     1    1    2 1
     2    1    3 1
     3    3    4 1
     4    3    5 1
     5    3   16 1
     6    5    6 1
     7    5    7 1
     8    5    8 1
     9    8    9 1
    10    8   14 1
    11    9   10 1
    12    9   11 1
    13   11   12 1
    14   11   13 1
    15   13   14 1
    16   14   15 1
    17   16   17 1
@<TRIPOS>SUBSTRUCTURE
     1 HD1         1 TEMP              0 ****  ****    0 ROOT
