@<TRIPOS>MOLECULE
HM1
   72    76     1     0     0
SMALL
RESP Charge
 
 
@<TRIPOS>ATOM
      1 ND        -19.9580   -3.7900  -18.5510 Y2        1 HM1      0.025036
      2 C4D       -19.5030   -2.8610  -19.4080 cc        1 HM1     -0.008996
      3 C3D       -18.9720   -1.7090  -18.6750 cc        1 HM1     -0.091947
      4 CAD       -18.3320   -0.4780  -19.2670 c3        1 HM1     -0.080350
      5 CBD       -16.8320   -0.7760  -19.4090 c3        1 HM1      0.124058
      6 CGD       -16.1180   -0.5950  -18.0950 c         1 HM1      0.613319
      7 O2D       -16.5030    0.2850  -17.3000 o         1 HM1     -0.709309
      8 O1D       -15.1270   -1.3060  -17.7860 o         1 HM1     -0.733132
      9 C2D       -19.1310   -1.9790  -17.3720 cd        1 HM1      0.028310
     10 CMD       -18.7470   -1.1090  -16.2010 c3        1 HM1     -0.172775
     11 C1D       -19.7630   -3.2950  -17.3230 cd        1 HM1     -0.033731
     12 CHD       -20.0830   -3.8490  -16.1010 cf        1 HM1     -0.094644
     13 C4C       -20.7930   -4.9910  -15.9870 cc        1 HM1     -0.036656
     14 NC        -21.1770   -5.7840  -16.9990 Y3        1 HM1     -0.068738
     15 C1C       -21.8760   -6.8370  -16.5200 cd        1 HM1     -0.052687
     16 C2C       -22.0350   -6.6620  -15.1410 cd        1 HM1      0.019226
     17 CMC       -22.7710   -7.5910  -14.2080 c3        1 HM1     -0.010301
     18 C3C       -21.3340   -5.5180  -14.7990 cc        1 HM1     -0.030684
     19 CAC       -21.2130   -4.8570  -13.4940 ce        1 HM1     -0.096923
     20 CBC       -21.9820   -5.1160  -12.4530 c2        1 HM1     -0.435672
     21 CHC       -22.4420   -7.8590  -17.2610 cf        1 HM1     -0.049495
     22 C4B       -22.3630   -7.9950  -18.6310 cc        1 HM1      0.010599
     23 NB        -21.7450   -7.2150  -19.4980 Y4        1 HM1     -0.042877
     24 C1B       -21.8970   -7.6760  -20.7230 cd        1 HM1     -0.049268
     25 C2B       -22.6250   -8.8730  -20.6860 cd        1 HM1      0.095973
     26 CMB       -22.9680   -9.7370  -21.8700 c3        1 HM1     -0.048593
     27 C3B       -22.9660   -9.0870  -19.4020 cc        1 HM1     -0.107048
     28 CAB       -23.6150  -10.3340  -18.9750 ce        1 HM1     -0.105435
     29 CBB       -23.3920  -10.8900  -17.7970 c2        1 HM1     -0.363891
     30 CHB       -21.4180   -7.1390  -21.9090 cf        1 HM1     -0.158062
     31 C4A       -20.8030   -5.9150  -21.9890 cc        1 HM1     -0.101926
     32 NA        -20.4510   -5.1010  -20.9470 Y5        1 HM1     -0.053815
     33 C1A       -19.9200   -3.9670  -21.4910 cd        1 HM1     -0.059558
     34 C2A       -20.0060   -4.0570  -22.8910 cd        1 HM1     -0.041748
     35 CAA       -19.6000   -3.0180  -23.8870 c3        1 HM1     -0.163338
     36 CBA       -20.7760   -2.0520  -24.1300 c3        1 HM1     -0.011961
     37 CGA       -21.1440   -1.9250  -25.5940 c         1 HM1      0.651099
     38 O2A       -22.3020   -2.2260  -25.9610 o         1 HM1     -0.721275
     39 O1A       -20.3130   -1.5130  -26.4400 o         1 HM1     -0.725517
     40 C3A       -20.5610   -5.2510  -23.1970 cc        1 HM1      0.055109
     41 CMA       -20.8580   -5.7960  -24.5640 c3        1 HM1     -0.153686
     42 CHA       -19.4620   -2.8930  -20.7940 cf        1 HM1     -0.128495
     43 HMA1      -21.0610   -5.0640  -25.1670 hc        1 HM1      0.055732
     44 HMA2      -21.6200   -6.3950  -24.5150 hc        1 HM1      0.055732
     45 HMA3      -20.0860   -6.2820  -24.8940 hc        1 HM1      0.055732
     46 HMB1      -23.0310  -10.6630  -21.5880 hc        1 HM1      0.015728
     47 HMB2      -22.2760   -9.6510  -22.5450 hc        1 HM1      0.015728
     48 HMB3      -23.8180   -9.4540  -22.2420 hc        1 HM1      0.015728
     49 HMC1      -22.3720   -7.5450  -13.3250 hc        1 HM1      0.011068
     50 HMC2      -22.7120   -8.5000  -14.5420 hc        1 HM1      0.011068
     51 HMC3      -23.7030   -7.3260  -14.1560 hc        1 HM1      0.011068
     52 HMD1      -19.3540   -1.2740  -15.4620 hc        1 HM1      0.066215
     53 HMD2      -18.8000   -0.1760  -16.4600 hc        1 HM1      0.066215
     54 HMD3      -17.8400   -1.3170  -15.9270 hc        1 HM1      0.066215
     55 HBB1      -23.8430  -11.7150  -17.5570 ha        1 HM1      0.136899
     56 HBB2      -22.7770  -10.4740  -17.1730 ha        1 HM1      0.136899
     57 HBC1      -21.8460   -4.6400  -11.6190 ha        1 HM1      0.145436
     58 HBC2      -22.6830   -5.7820  -12.5220 ha        1 HM1      0.145436
     59 HBA1      -20.5460   -1.1760  -23.7820 hc        1 HM1     -0.018741
     60 HBA2      -21.5500   -2.3600  -23.6330 hc        1 HM1     -0.018741
     61 HAA1      -19.3380   -3.4400  -24.7200 hc        1 HM1      0.063023
     62 HAA2      -18.8280   -2.5280  -23.5620 hc        1 HM1      0.063023
     63 HBD1      -16.4440   -0.1880  -20.0750 hc        1 HM1     -0.066839
     64 HBD2      -16.7080   -1.6840  -19.7260 hc        1 HM1     -0.066839
     65 HAD1      -18.4760    0.2920  -18.6960 hc        1 HM1      0.037602
     66 HAD2      -18.7230   -0.2690  -20.1290 hc        1 HM1      0.037602
     67 HHA       -19.1140   -2.1650  -21.2560 ha        1 HM1      0.185855
     68 HHB       -21.5190   -7.6340  -22.6900 ha        1 HM1      0.170442
     69 HHC       -22.9160   -8.5100  -16.7960 ha        1 HM1      0.078928
     70 HHD       -19.7990   -3.4190  -15.3270 ha        1 HM1      0.113146
     71 HAB       -24.2330  -10.7680  -19.5840 ha        1 HM1      0.130780
     72 HAC       -20.5220   -4.1850  -13.3900 ha        1 HM1      0.141164
@<TRIPOS>BOND
     1    1    2 1
     2    1   11 1
     3    2    3 1
     4    2   42 1
     5    3    4 1
     6    3    9 1
     7    4    5 1
     8    4   65 1
     9    4   66 1
    10    5    6 1
    11    5   63 1
    12    5   64 1
    13    6    7 1
    14    6    8 1
    15    9   10 1
    16    9   11 1
    17   10   52 1
    18   10   53 1
    19   10   54 1
    20   11   12 1
    21   12   13 1
    22   12   70 1
    23   13   14 1
    24   13   18 1
    25   14   15 1
    26   15   16 1
    27   15   21 1
    28   16   17 1
    29   16   18 1
    30   17   49 1
    31   17   50 1
    32   17   51 1
    33   18   19 1
    34   19   20 1
    35   19   72 1
    36   20   57 1
    37   20   58 1
    38   21   22 1
    39   21   69 1
    40   22   23 1
    41   22   27 1
    42   23   24 1
    43   24   25 1
    44   24   30 1
    45   25   26 1
    46   25   27 1
    47   26   46 1
    48   26   47 1
    49   26   48 1
    50   27   28 1
    51   28   29 1
    52   28   71 1
    53   29   55 1
    54   29   56 1
    55   30   31 1
    56   30   68 1
    57   31   32 1
    58   31   40 1
    59   32   33 1
    60   33   34 1
    61   33   42 1
    62   34   35 1
    63   34   40 1
    64   35   36 1
    65   35   61 1
    66   35   62 1
    67   36   37 1
    68   36   59 1
    69   36   60 1
    70   37   38 1
    71   37   39 1
    72   40   41 1
    73   41   43 1
    74   41   44 1
    75   41   45 1
    76   42   67 1
@<TRIPOS>SUBSTRUCTURE
     1 HM1         1 TEMP              0 ****  ****    0 ROOT
