@<TRIPOS>MOLECULE
ML1
   25    26     1     0     0
SMALL
RESP Charge
 
 
@<TRIPOS>ATOM
      1 N1        -25.4630   -6.4210  -20.6610 nc        1 ML1     -0.423876
      2 O1        -25.8100   -6.1600  -21.9390 os        1 ML1      0.016124
      3 N2        -25.2660   -5.0920  -22.5440 nc        1 ML1     -0.349981
      4 C1        -24.5050   -4.6210  -21.5440 cd        1 ML1      0.338114
      5 N3        -23.7220   -3.5300  -21.6970 nh        1 ML1     -0.732429
      6 H1        -23.6870   -2.9340  -22.5240 hn        1 ML1      0.362471
      7 H2        -23.1440   -3.1720  -20.9370 hn        1 ML1      0.287199
      8 C2        -24.5550   -5.4610  -20.3790 cd        1 ML1      0.678251
      9 C3        -23.8300   -5.0600  -19.1730 cf        1 ML1     -0.061825
     10 N4        -22.5730   -4.5980  -19.0700 Y6        1 ML1     -0.429594
     11 O2        -22.1670   -4.1870  -20.1470 oh        1 ML1      0.050037
     12 H3        -21.2780   -3.8600  -20.0740 ho        1 ML1      0.186815
     13 N5        -24.5110   -4.7100  -18.1550 nh        1 ML1     -0.079811
     14 H4        -23.9210   -4.3940  -17.3850 hn        1 ML1      0.290202
     15 C4        -25.8080   -4.6570  -17.8530 ca        1 ML1     -0.041336
     16 C5        -26.8310   -3.9740  -18.4890 ca        1 ML1     -0.023995
     17 H5        -26.6020   -3.2130  -19.2540 ha        1 ML1      0.083196
     18 C6        -28.1260   -4.2520  -18.1590 ca        1 ML1     -0.041777
     19 Cl1       -29.4850   -3.4300  -18.9610 cl        1 ML1     -0.111986
     20 C7        -28.4180   -5.1630  -17.1780 ca        1 ML1      0.266015
     21 C8        -27.4100   -5.8560  -16.5200 ca        1 ML1     -0.215502
     22 H6        -27.6480   -6.5930  -15.7350 ha        1 ML1      0.141912
     23 C9        -26.0860   -5.5930  -16.8810 ca        1 ML1     -0.157552
     24 H7        -25.2620   -6.1350  -16.3870 ha        1 ML1      0.173815
     25 F1        -29.7120   -5.3560  -16.9000 f         1 ML1     -0.170016
@<TRIPOS>BOND
     1    1    2 1
     2    1    8 1
     3    2    3 1
     4    3    4 1
     5    4    5 1
     6    4    8 1
     7    5    6 1
     8    5    7 1
     9    8    9 1
    10    9   10 1
    11    9   13 1
    12   10   11 1
    13   11   12 1
    14   13   14 1
    15   13   15 1
    16   15   16 1
    17   15   23 1
    18   16   17 1
    19   16   18 1
    20   18   19 1
    21   18   20 1
    22   20   21 1
    23   20   25 1
    24   21   22 1
    25   21   23 1
    26   23   24 1
@<TRIPOS>SUBSTRUCTURE
     1 ML1         1 TEMP              0 ****  ****    0 ROOT
