@<TRIPOS>MOLECULE
ML1
   45    48     1     0     0
SMALL
RESP Charge
 
 
@<TRIPOS>ATOM
      1 C23         9.1880   31.3690   36.6070 ca        1 ML1     -0.193670
      2 H23         8.2250   31.4800   36.0810 ha        1 ML1      0.127524
      3 C4          9.9160   29.4600   30.7520 ca        1 ML1     -0.137484
      4 H4         10.9870   29.2370   30.6140 ha        1 ML1      0.151653
      5 C6          8.1800   31.0330   31.1940 ca        1 ML1     -0.094925
      6 H6          7.8530   32.0630   31.4160 ha        1 ML1      0.092357
      7 C22         9.9540   30.2400   36.4130 ca        1 ML1     -0.057924
      8 H22         9.5890   29.4540   35.7300 ha        1 ML1      0.098879
      9 C3          8.9890   28.4520   30.6320 ca        1 ML1     -0.135406
     10 H3          9.3140   27.4220   30.4090 ha        1 ML1      0.119483
     11 C7          7.2520   30.0230   31.0660 ca        1 ML1     -0.182580
     12 H7          6.1790   30.2480   31.1840 ha        1 ML1      0.106139
     13 C24         9.6250   32.3560   37.4560 ca        1 ML1     -0.054437
     14 H24         9.0240   33.2660   37.6220 ha        1 ML1      0.097592
     15 C27        11.6000   31.0570   37.9020 ca        1 ML1     -0.055184
     16 H27        12.5630   30.9490   38.4300 ha        1 ML1      0.088423
     17 C13        13.1960   31.6110   33.5500 cc        1 ML1     -0.131717
     18 H13        13.8360   31.2620   34.3770 h4        1 ML1      0.178200
     19 C5          9.5180   30.7470   31.0430 ca        1 ML1     -0.002953
     20 C2          7.6540   28.7370   30.7920 ca        1 ML1      0.089321
     21 C21        11.1650   30.0670   37.0500 ca        1 ML1     -0.024809
     22 C25        10.8300   32.1830   38.0940 ca        1 ML1      0.010463
     23 C14        12.0470   30.9910   33.0990 cd        1 ML1      0.035478
     24 C11        12.4060   32.7970   31.9130 cd        1 ML1     -0.032087
     25 C9         10.6120   32.8180   30.3660 cc        1 ML1     -0.264955
     26 H9          9.8630   32.9860   29.5740 h4        1 ML1      0.177980
     27 C8         10.5440   31.7590   31.1840 cd        1 ML1      0.018631
     28 C16        11.4590   29.8140   33.6150 c         1 ML1      0.207747
     29 C1          6.6580   27.6490   30.6630 c3        1 ML1     -0.149152
     30 H11         5.5750   27.8800   30.7930 hc        1 ML1      0.041980
     31 H12         6.9340   26.8280   31.3650 hc        1 ML1      0.041980
     32 H5          6.8000   27.1510   29.6760 hc        1 ML1      0.041980
     33 C20        12.0010   28.8460   36.8440 c3        1 ML1     -0.044207
     34 H201       11.7800   28.0760   37.6200 hc        1 ML1      0.039802
     35 H202       13.0700   29.0490   37.0880 hc        1 ML1      0.039802
     36 C19        11.8650   28.2660   35.4540 c3        1 ML1      0.041065
     37 H191       12.3550   27.2660   35.3950 h1        1 ML1      0.028928
     38 H192       10.8090   27.9680   35.2530 h1        1 ML1      0.028928
     39 N15        11.5830   31.7800   32.0610 na        1 ML1      0.229768
     40 N12        13.4060   32.7460   32.7850 Y6        1 ML1     -0.020183
     41 N18        12.3570   29.1380   34.4110 n         1 ML1     -0.185668
     42 H18        13.3600   29.2520   34.2660 hn        1 ML1      0.197627
     43 O17        10.3040   29.4570   33.4700 o         1 ML1     -0.384090
     44 S10        11.9360   33.9140   30.6140 ss        1 ML1      0.073365
     45 Cl         11.3740   33.4150   39.1580 cl        1 ML1     -0.160435
@<TRIPOS>BOND
     1    1    2 1
     2    1    7 1
     3    1   13 1
     4    3    4 1
     5    3    9 1
     6    3   19 1
     7    5    6 1
     8    5   11 1
     9    5   19 1
    10    7    8 1
    11    7   21 1
    12    9   10 1
    13    9   20 1
    14   11   12 1
    15   11   20 1
    16   13   14 1
    17   13   22 1
    18   15   16 1
    19   15   21 1
    20   15   22 1
    21   17   18 1
    22   17   23 1
    23   17   40 1
    24   19   27 1
    25   20   29 1
    26   21   33 1
    27   22   45 1
    28   23   28 1
    29   23   39 1
    30   24   39 1
    31   24   40 1
    32   24   44 1
    33   25   26 1
    34   25   27 1
    35   25   44 1
    36   27   39 1
    37   28   41 1
    38   28   43 1
    39   29   30 1
    40   29   31 1
    41   29   32 1
    42   33   34 1
    43   33   35 1
    44   33   36 1
    45   36   37 1
    46   36   38 1
    47   36   41 1
    48   41   42 1
@<TRIPOS>SUBSTRUCTURE
     1 ML1         1 TEMP              0 ****  ****    0 ROOT
