@<TRIPOS>MOLECULE
HD1
   17    17     1     0     0
SMALL
RESP Charge
 
 
@<TRIPOS>ATOM
      1 N         -15.1130   -9.6040  -15.6970 N         1 HD1     -0.415700
      2 H         -14.7040   -8.9470  -15.0480 H         1 HD1      0.231885
      3 CA        -16.1040   -9.1190  -16.6300 CX        1 HD1      0.018800
      4 HA        -17.0860   -9.4940  -16.3420 H1        1 HD1      0.083289
      5 CB        -16.1490   -7.5990  -16.6460 CT        1 HD1      0.000482
      6 HB2       -16.3490   -7.2270  -15.6410 HC        1 HD1      0.046197
      7 HB3       -15.2090   -7.1810  -17.0070 HC        1 HD1      0.046197
      8 CG        -17.2250   -7.0530  -17.5260 CC        1 HD1     -0.081971
      9 ND1       -17.0580   -6.8740  -18.8790 NA        1 HD1     -0.105711
     10 HD1       -16.2100   -7.0840  -19.3850 H         1 HD1      0.265813
     11 CE1       -18.1720   -6.3900  -19.3980 CR        1 HD1     -0.034172
     12 HE1       -18.2360   -6.1910  -20.4680 H5        1 HD1      0.149476
     13 NE2       -19.0620   -6.2310  -18.4290 Y1        1 HD1      0.008456
     14 CD2       -18.4880   -6.6620  -17.2480 CV        1 HD1     -0.084845
     15 HD2       -19.0630   -6.6390  -16.3220 H4        1 HD1      0.119642
     16 C         -15.8760   -9.6500  -18.0430 C         1 HD1      0.597300
     17 O         -16.8130  -10.1560  -18.6560 O         1 HD1     -0.567900
@<TRIPOS>BOND
     1    1    2 1
     2    1    3 1
     3    3    4 1
     4    3    5 1
     5    3   16 1
     6    5    6 1
     7    5    7 1
     8    5    8 1
     9    8    9 1
    10    8   14 1
    11    9   10 1
    12    9   11 1
    13   11   12 1
    14   11   13 1
    15   13   14 1
    16   14   15 1
    17   16   17 1
@<TRIPOS>SUBSTRUCTURE
     1 HD1         1 TEMP              0 ****  ****    0 ROOT
