@<TRIPOS>MOLECULE
ML1
   20    21     1     0     0
SMALL
bcc


@<TRIPOS>ATOM
      1 C1          59.2520    53.1440    18.4460 ca       395 ML1      -0.011000
      2 C2          58.3000    52.5680    19.2600 ca       395 ML1      -0.106500
      3 C3          57.0040    52.5150    18.7860 ca       395 ML1      -0.127000
      4 C4          56.6350    53.0590    17.5620 ca       395 ML1       0.013900
      5 C5          57.5990    53.6500    16.7630 ca       395 ML1      -0.127000
      6 C6          58.9160    53.6870    17.2020 ca       395 ML1      -0.106500
      7 N11         61.2180    52.4640    19.8810 na       395 ML1      -0.311900
      8 C12         60.6130    53.2270    18.9110 cc       395 ML1      -0.172600
      9 C13         61.5670    54.0930    18.4810 cd       395 ML1       0.314200
     10 N14         62.6610    53.8920    19.1350 Y6       395 ML1      -0.666000
     11 C15         62.5050    52.8630    19.9180 cc       395 ML1       0.394400
     12 H01         56.2860    51.9760    19.4050 ha       395 ML1       0.139500
     13 H02         54.4300    51.7530    17.1500 hs       395 ML1       0.190800
     14 S01         54.9170    52.9880    16.9660 sh       395 ML1      -0.241700
     15 H9          57.3180    54.0600    15.8060 ha       395 ML1       0.139500
     16 H10         59.6670    54.1510    16.5790 ha       395 ML1       0.135000
     17 H16         61.4850    54.8730    17.7350 h4       395 ML1       0.044100
     18 H17         60.8230    51.6970    20.4020 hn       395 ML1       0.301700
     19 H18         63.2380    52.3920    20.5730 h5       395 ML1       0.062100
     20 H19         58.5680    52.1600    20.2290 ha       395 ML1       0.135000
@<TRIPOS>BOND
     1     1     2 ar  
     2     1     6 ar  
     3     1     8 1   
     4     2     3 ar  
     5     2    20 1   
     6     3     4 ar  
     7     3    12 1   
     8     4     5 ar  
     9     4    14 1   
    10     5     6 ar  
    11     5    15 1   
    12     6    16 1   
    13     7     8 1   
    14     7    11 1   
    15     7    18 1   
    16     8     9 2   
    17     9    10 1   
    18     9    17 1   
    19    10    11 2   
    20    11    19 1   
    21    13    14 1   
@<TRIPOS>SUBSTRUCTURE
     1 ML1         1 TEMP              0 ****  ****    0 ROOT
