@<TRIPOS>MOLECULE
ML1
   20    21     1     0     0
SMALL
bcc


@<TRIPOS>ATOM
      1 C1          38.3400   -62.4280   -32.6640 ca         1 ML1      -0.011000
      2 C2          38.7530   -63.7530   -32.6330 ca         1 ML1      -0.106500
      3 C3          38.5640   -64.5380   -33.7560 ca         1 ML1      -0.127000
      4 C4          37.9550   -64.0030   -34.8940 ca         1 ML1       0.013900
      5 C5          37.3750   -62.7470   -34.8460 ca         1 ML1      -0.127000
      6 C6          37.5890   -61.9510   -33.7330 ca         1 ML1      -0.106500
      7 N11         39.3060   -61.7760   -30.4320 na         1 ML1      -0.310900
      8 C12         38.8460   -61.4760   -31.6850 cc         1 ML1      -0.171600
      9 C13         39.1400   -60.1420   -31.8660 cd         1 ML1       0.313200
     10 N14         39.8960   -59.6900   -30.9000 Y6         1 ML1      -0.667000
     11 C15         39.9400   -60.6470   -30.0060 cc         1 ML1       0.394400
     12 H01         38.9150   -65.5700   -33.7220 ha         1 ML1       0.139500
     13 H02         36.7210   -65.3710   -36.7220 hs         1 ML1       0.191800
     14 S01         37.9300   -64.8300   -36.5150 sh         1 ML1      -0.243700
     15 H9          36.8420   -62.3570   -35.7000 ha         1 ML1       0.139500
     16 H10         37.2480   -60.9290   -33.7390 ha         1 ML1       0.135000
     17 H16         38.9250   -59.5540   -32.7460 h4         1 ML1       0.043100
     18 H17         39.2490   -62.6640   -29.9580 hn         1 ML1       0.302700
     19 H18         40.4580   -60.6230   -29.0570 h5         1 ML1       0.062100
     20 H19         39.3160   -64.1420   -31.7980 ha         1 ML1       0.135000
@<TRIPOS>BOND
     1     1     2 ar  
     2     1     6 ar  
     3     1     8 1   
     4     2     3 ar  
     5     2    20 1   
     6     3     4 ar  
     7     3    12 1   
     8     4     5 ar  
     9     4    14 1   
    10     5     6 ar  
    11     5    15 1   
    12     6    16 1   
    13     7     8 1   
    14     7    11 1   
    15     7    18 1   
    16     8     9 2   
    17     9    10 1   
    18     9    17 1   
    19    10    11 2   
    20    11    19 1   
    21    13    14 1   
@<TRIPOS>SUBSTRUCTURE
     1 ML1         1 TEMP              0 ****  ****    0 ROOT
