@<TRIPOS>MOLECULE
HD1
   17    17     1     0     0
SMALL
RESP Charge
 
 
@<TRIPOS>ATOM
      1 N          71.5050   58.2240   15.8330 N         1 HD1     -0.415700
      2 H          72.0200   57.5260   15.3140 H         1 HD1      0.224362
      3 CA         70.4590   57.7770   16.7410 CX        1 HD1      0.018800
      4 HA         69.5250   58.2600   16.4470 H1        1 HD1      0.088911
      5 CB         70.2790   56.2680   16.5850 CT        1 HD1     -0.001595
      6 HB2        69.9970   56.0500   15.5540 HC        1 HD1      0.044253
      7 HB3        71.2220   55.7690   16.7920 HC        1 HD1      0.044253
      8 CG         69.2370   55.6910   17.4760 CC        1 HD1     -0.054102
      9 ND1        69.5490   55.0820   18.6690 NA        1 HD1     -0.145212
     10 HD1        70.4800   54.9720   19.0450 H         1 HD1      0.269261
     11 CE1        68.4390   54.6620   19.2440 CR        1 HD1      0.049770
     12 HE1        68.3730   54.1590   20.1990 H5        1 HD1      0.115142
     13 NE2        67.4170   54.9830   18.4690 Y1        1 HD1     -0.003786
     14 CD2        67.8920   55.6250   17.3530 CV        1 HD1     -0.139207
     15 HD2        67.3010   56.0320   16.5470 H4        1 HD1      0.147943
     16 C          70.7450   58.1590   18.2030 C         1 HD1      0.597300
     17 O          69.8170   58.4770   18.9450 O         1 HD1     -0.567900
@<TRIPOS>BOND
     1    1    2 1
     2    1    3 1
     3    3    4 1
     4    3    5 1
     5    3   16 1
     6    5    6 1
     7    5    7 1
     8    5    8 1
     9    8    9 1
    10    8   14 1
    11    9   10 1
    12    9   11 1
    13   11   12 1
    14   11   13 1
    15   13   14 1
    16   14   15 1
    17   16   17 1
@<TRIPOS>SUBSTRUCTURE
     1 HD1         1 TEMP              0 ****  ****    0 ROOT
