@<TRIPOS>MOLECULE
ML1
   38    39     1     0     0
SMALL
RESP Charge
 
 
@<TRIPOS>ATOM
      1 C5         59.5570   53.7300   17.2160 ca        1 ML1     -0.128538
      2 H5         60.3660   54.1580   16.6000 ha        1 ML1      0.137595
      3 C4         58.2830   53.5580   16.6740 ca        1 ML1     -0.183377
      4 H4         58.0750   53.8670   15.6360 ha        1 ML1      0.137541
      5 C2         57.5340   52.6100   18.7580 ca        1 ML1     -0.088169
      6 C1         58.7910   52.7870   19.2950 ca        1 ML1     -0.061820
      7 H1         58.9910   52.4710   20.3330 ha        1 ML1      0.100044
      8 C6         59.8070   53.3590   18.5420 ca        1 ML1     -0.012790
      9 C10        61.5090   53.9420   20.1960 ce        1 ML1      0.004199
     10 O16        59.3020   55.5640   22.5900 os        1 ML1     -0.019741
     11 C3         57.2710   52.9910   17.4570 ca        1 ML1      0.229438
     12 F7         56.0320   52.7970   16.9910 f         1 ML1     -0.162809
     13 Br         56.2000   51.8400   19.8420 br        1 ML1     -0.059878
     14 N9         61.0880   53.5150   19.0770 nh        1 ML1     -0.015095
     15 H9         61.8330   53.2290   18.4420 hn        1 ML1      0.234860
     16 N11        62.8270   53.8930   20.3400 n2        1 ML1     -0.171149
     17 O12        63.6450   53.3160   19.3750 Y6        1 ML1     -0.282509
     18 H12        64.5890   53.2810   19.4780 ho        1 ML1      0.208764
     19 C13        60.6940   54.5230   21.3190 cc        1 ML1      0.314995
     20 C14        60.9470   54.3120   22.7750 cc        1 ML1      0.403997
     21 N15        60.0660   54.9930   23.5270 nd        1 ML1     -0.286841
     22 N17        59.6140   55.3340   21.3010 nd        1 ML1     -0.306881
     23 N18        61.9780   53.6110   23.3120 nh        1 ML1     -0.589859
     24 H18        62.4970   52.9580   22.7240 hn        1 ML1      0.345789
     25 C19        62.3580   53.7690   24.7010 c3        1 ML1      0.069760
     26 H191       62.4990   54.8490   24.9380 h1        1 ML1      0.087613
     27 H192       63.3970   53.3960   24.8570 h1        1 ML1      0.087613
     28 C20        61.4160   53.1310   25.7150 c3        1 ML1      0.030390
     29 H201       60.9740   52.1760   25.3470 h1        1 ML1      0.056502
     30 H202       60.4660   53.7020   25.8350 h1        1 ML1      0.056502
     31 N21        62.1440   52.9660   26.9890 n3        1 ML1     -0.427942
     32 H21        62.5320   52.0660   27.2730 hn        1 ML1      0.362530
     33 S22        62.2950   54.2920   27.9140 s6        1 ML1      0.858645
     34 O23        61.8690   55.4990   27.2540 o         1 ML1     -0.464662
     35 O24        63.6820   54.4380   28.2720 o         1 ML1     -0.488602
     36 N25        61.4200   54.1010   29.2530 n3        1 ML1     -0.932582
     37 H251       61.5150   54.9340   29.8340 hn        1 ML1      0.444504
     38 H252       60.8650   53.2730   29.4710 hn        1 ML1      0.428225
@<TRIPOS>BOND
     1    1    2 1
     2    1    3 1
     3    1    8 1
     4    3    4 1
     5    3   11 1
     6    5    6 1
     7    5   11 1
     8    5   13 1
     9    6    7 1
    10    6    8 1
    11    8   14 1
    12    9   14 1
    13    9   16 1
    14    9   19 1
    15   10   21 1
    16   10   22 1
    17   11   12 1
    18   14   15 1
    19   16   17 1
    20   17   18 1
    21   19   20 1
    22   19   22 1
    23   20   21 1
    24   20   23 1
    25   23   24 1
    26   23   25 1
    27   25   26 1
    28   25   27 1
    29   25   28 1
    30   28   29 1
    31   28   30 1
    32   28   31 1
    33   31   32 1
    34   31   33 1
    35   33   34 1
    36   33   35 1
    37   33   36 1
    38   36   37 1
    39   36   38 1
@<TRIPOS>SUBSTRUCTURE
     1 ML1         1 TEMP              0 ****  ****    0 ROOT
