@<TRIPOS>MOLECULE
HM1
   72    76     1     0     0
SMALL
RESP Charge
 
 
@<TRIPOS>ATOM
      1 CHA        21.8000    2.9460   20.2800 ce        1 HM1     -0.040861
      2 C4D        21.6920    2.9190   18.9020 cc        1 HM1     -0.039268
      3 ND         21.1010    3.8790   18.0880 Y2        1 HM1     -0.043825
      4 C1D        21.2130    3.4640   16.7710 cd        1 HM1     -0.070715
      5 C2D        21.9040    2.1850   16.7780 cd        1 HM1      0.029987
      6 CMD        22.2600    1.3380   15.5420 c3        1 HM1     -0.024285
      7 C3D        22.1900    1.8650   18.0410 cc        1 HM1     -0.045107
      8 CAD        22.9240    0.5930   18.4860 c3        1 HM1     -0.030140
      9 CBD        24.3200    1.0020   18.9390 c3        1 HM1      0.027176
     10 CGD        25.2470    0.9400   17.7520 c         1 HM1      0.631513
     11 O2D        25.1060    0.0300   16.8810 o         1 HM1     -0.721029
     12 O1D        26.1330    1.8260   17.6740 o         1 HM1     -0.736770
     13 CHD        20.7430    4.1130   15.6500 ce        1 HM1     -0.083687
     14 C4C        20.0320    5.2890   15.6380 cc        1 HM1     -0.018556
     15 NC         19.8390    6.0970   16.7420 Y3        1 HM1     -0.138094
     16 C1C        19.0840    7.1970   16.3700 cd        1 HM1     -0.048493
     17 C2C        18.8000    7.0490   14.9540 cd        1 HM1      0.030333
     18 CMC        17.9780    8.0140   14.0760 c3        1 HM1     -0.018253
     19 C3C        19.3450    5.9130   14.5200 cc        1 HM1     -0.029257
     20 CAC        19.2350    5.4280   13.0600 ce        1 HM1     -0.129254
     21 CBC        19.2880    4.1250   12.7650 c2        1 HM1     -0.344842
     22 CHC        18.6900    8.2320   17.1920 ce        1 HM1     -0.118014
     23 C4B        18.8490    8.3080   18.5660 cc        1 HM1     -0.033689
     24 NB         19.4720    7.3740   19.3680 Y4        1 HM1     -0.026536
     25 C1B        19.4360    7.8150   20.6730 cd        1 HM1     -0.041336
     26 C2B        18.7720    9.0920   20.6970 cd        1 HM1      0.074812
     27 CMB        18.5600    9.8890   22.0090 c3        1 HM1     -0.052050
     28 C3B        18.4230    9.4000   19.4290 cc        1 HM1     -0.043462
     29 CAB        17.6750   10.6490   18.8990 ce        1 HM1     -0.113801
     30 CBB        16.9910   11.4900   19.6860 c2        1 HM1     -0.368106
     31 CHB        19.9310    7.1660   21.7770 ce        1 HM1     -0.138230
     32 C4A        20.5040    5.9160   21.7960 cc        1 HM1     -0.096428
     33 NA         20.8250    5.1550   20.6910 Y5        1 HM1     -0.059847
     34 C1A        21.3710    3.9570   21.1290 cd        1 HM1     -0.032950
     35 C2A        21.3910    4.0000   22.5940 cd        1 HM1     -0.050497
     36 CAA        21.8860    2.9480   23.6100 c3        1 HM1     -0.052386
     37 CBA        21.6100    1.5210   23.1550 c3        1 HM1     -0.020348
     38 CGA        20.1360    1.2950   23.1680 c         1 HM1      0.660296
     39 O2A        19.6360    1.2120   24.3100 o         1 HM1     -0.739199
     40 O1A        19.4920    1.2210   22.0820 o         1 HM1     -0.713047
     41 C3A        20.8730    5.1690   22.9790 cc        1 HM1     -0.018831
     42 CMA        20.6890    5.6390   24.4420 c3        1 HM1     -0.046209
     43 HMA1       20.7490    6.6060   24.4810 hc        1 HM1      0.017147
     44 HMA2       21.3830    5.2500   24.9970 hc        1 HM1      0.017147
     45 HMA3       19.8200    5.3560   24.7660 hc        1 HM1      0.017147
     46 HMB1       18.5530   10.8390   21.8130 hc        1 HM1      0.017268
     47 HMB2       19.2810    9.6920   22.6280 hc        1 HM1      0.017268
     48 HMB3       17.7130    9.6360   22.4080 hc        1 HM1      0.017268
     49 HMC1       17.3050    8.4520   14.6190 hc        1 HM1      0.002563
     50 HMC2       17.5450    7.5160   13.3650 hc        1 HM1      0.002563
     51 HMC3       18.5660    8.6820   13.6900 hc        1 HM1      0.002563
     52 HMD1       23.0690    0.8320   15.7180 hc        1 HM1      0.016636
     53 HMD2       22.4040    1.9210   14.7800 hc        1 HM1      0.016636
     54 HMD3       21.5320    0.7270   15.3480 hc        1 HM1      0.016636
     55 HBB1       16.5410   12.2580   19.3000 ha        1 HM1      0.129886
     56 HBB2       16.9460   11.3310   20.6420 ha        1 HM1      0.129886
     57 HBC1       19.2180    3.8330   11.8430 ha        1 HM1      0.129440
     58 HBC2       19.3970    3.4710   13.4730 ha        1 HM1      0.129440
     59 HBA1       22.0530    0.8890   23.7420 hc        1 HM1     -0.010341
     60 HBA2       21.9650    1.3770   22.2640 hc        1 HM1     -0.010341
     61 HAA1       21.4540    3.1010   24.4650 hc        1 HM1      0.029255
     62 HAA2       22.8390    3.0610   23.7490 hc        1 HM1      0.029255
     63 HBD1       24.6330    0.4110   19.6420 hc        1 HM1     -0.037830
     64 HBD2       24.3050    1.8990   19.3080 hc        1 HM1     -0.037830
     65 HAD1       22.9750   -0.0440   17.7560 hc        1 HM1      0.021853
     66 HAD2       22.4450    0.1580   19.2090 hc        1 HM1      0.021853
     67 HHA        22.2020    2.2090   20.6800 ha        1 HM1      0.136605
     68 HHB        19.8730    7.6150   22.5900 ha        1 HM1      0.174301
     69 HHC        18.2740    8.9550   16.7810 ha        1 HM1      0.124808
     70 HHD        20.9230    3.7200   14.8270 ha        1 HM1      0.110243
     71 HAB        17.7030   10.8320   17.9470 ha        1 HM1      0.134850
     72 HAC        19.1260    6.0760   12.3470 ha        1 HM1      0.134126
@<TRIPOS>BOND
     1    1    2 1
     2    1   34 1
     3    1   67 1
     4    2    3 1
     5    2    7 1
     6    3    4 1
     7    4    5 1
     8    4   13 1
     9    5    6 1
    10    5    7 1
    11    6   52 1
    12    6   53 1
    13    6   54 1
    14    7    8 1
    15    8    9 1
    16    8   65 1
    17    8   66 1
    18    9   10 1
    19    9   63 1
    20    9   64 1
    21   10   11 1
    22   10   12 1
    23   13   14 1
    24   13   70 1
    25   14   15 1
    26   14   19 1
    27   15   16 1
    28   16   17 1
    29   16   22 1
    30   17   18 1
    31   17   19 1
    32   18   49 1
    33   18   50 1
    34   18   51 1
    35   19   20 1
    36   20   21 1
    37   20   72 1
    38   21   57 1
    39   21   58 1
    40   22   23 1
    41   22   69 1
    42   23   24 1
    43   23   28 1
    44   24   25 1
    45   25   26 1
    46   25   31 1
    47   26   27 1
    48   26   28 1
    49   27   46 1
    50   27   47 1
    51   27   48 1
    52   28   29 1
    53   29   30 1
    54   29   71 1
    55   30   55 1
    56   30   56 1
    57   31   32 1
    58   31   68 1
    59   32   33 1
    60   32   41 1
    61   33   34 1
    62   34   35 1
    63   35   36 1
    64   35   41 1
    65   36   37 1
    66   36   61 1
    67   36   62 1
    68   37   38 1
    69   37   59 1
    70   37   60 1
    71   38   39 1
    72   38   40 1
    73   41   42 1
    74   42   43 1
    75   42   44 1
    76   42   45 1
@<TRIPOS>SUBSTRUCTURE
     1 HM1         1 TEMP              0 ****  ****    0 ROOT
