@<TRIPOS>MOLECULE
ML1
   52    56     1     0     0
SMALL
RESP Charge
 
 
@<TRIPOS>ATOM
      1 C1         56.8660   52.5340   19.9080 ca        1 ML1     -0.071691
      2 C2         57.3720   53.0440   17.2170 ca        1 ML1     -0.061422
      3 C3         56.0900   52.7330   17.6450 ca        1 ML1     -0.132162
      4 C4         55.8460   52.4750   18.9860 ca        1 ML1     -0.141361
      5 C5         58.1430   52.9240   19.5170 ca        1 ML1     -0.027936
      6 C6         58.4220   53.1330   18.1360 ca        1 ML1     -0.059806
      7 C7         59.8050   53.4170   17.6200 c         1 ML1      0.370554
      8 C8         59.1470   53.1330   20.6000 c         1 ML1      0.294124
      9 O1         60.0710   53.5330   16.4270 o         1 ML1     -0.406032
     10 O2         58.8710   53.1330   21.8000 o         1 ML1     -0.388555
     11 C9         60.7880   53.4340   18.6910 cc        1 ML1      0.056710
     12 C10        60.4660   53.2690   20.0320 cd        1 ML1     -0.013282
     13 N1         61.6590   53.2080   20.6840 na        1 ML1      0.144367
     14 N2         62.6460   53.3490   19.7920 Y6        1 ML1     -0.046399
     15 N3         62.0910   53.5330   18.5470 nc        1 ML1     -0.134129
     16 C11        61.9330   52.9400   22.0910 c3        1 ML1      0.028045
     17 C12        60.7880   55.9080   25.0210 ca        1 ML1     -0.167416
     18 C13        61.2350   56.3120   23.7650 ca        1 ML1     -0.169790
     19 C14        61.4880   55.3670   22.7740 ca        1 ML1     -0.139007
     20 C15        61.4550   54.0050   23.0780 ca        1 ML1     -0.001935
     21 C16        61.0470   53.6090   24.3510 ca        1 ML1      0.008032
     22 C17        60.6570   54.5450   25.3180 ca        1 ML1      0.007245
     23 C18        60.2350   54.1060   26.7000 c         1 ML1      0.383755
     24 O3         60.7520   54.6660   27.6700 o         1 ML1     -0.509741
     25 C19        58.9110   51.0370   25.5550 c3        1 ML1     -0.053980
     26 C20        58.4930   52.5180   25.7660 c3        1 ML1     -0.078806
     27 N4         59.3330   53.0920   26.8380 n         1 ML1     -0.104350
     28 C21        59.1280   52.4420   28.1430 c3        1 ML1      0.012535
     29 C22        59.7200   51.0230   27.9880 c3        1 ML1     -0.079196
     30 N5         58.9310   50.2590   26.8950 n3        1 ML1     -0.378705
     31 C23        59.5780   48.8740   26.6610 c3        1 ML1     -0.321833
     32 H1         56.6300   52.3340   20.9450 ha        1 ML1      0.105431
     33 H2         57.5390   53.2230   16.1620 ha        1 ML1      0.097958
     34 H3         55.2720   52.7030   16.9410 ha        1 ML1      0.105698
     35 H4         54.8520   52.2600   19.3410 ha        1 ML1      0.110303
     36 H5         63.0020   52.7730   22.2260 h1        1 ML1      0.084093
     37 H6         61.4460   51.9890   22.3210 h1        1 ML1      0.084093
     38 H7         60.5890   56.6570   25.7720 ha        1 ML1      0.110579
     39 H8         61.4460   57.3520   23.5730 ha        1 ML1      0.125253
     40 H9         61.8380   55.7010   21.8090 ha        1 ML1      0.144654
     41 H10        61.0910   52.5610   24.5950 ha        1 ML1      0.161232
     42 H11        59.8980   50.9280   25.1040 h1        1 ML1      0.105052
     43 H12        58.1790   50.5140   24.9410 h1        1 ML1      0.105052
     44 H13        58.5630   53.0720   24.8290 h1        1 ML1      0.054254
     45 H14        57.4470   52.5730   26.0700 h1        1 ML1      0.054254
     46 H15        59.6230   52.9690   28.9610 h1        1 ML1      0.048469
     47 H16        58.0660   52.4090   28.3850 h1        1 ML1      0.048469
     48 H17        60.7690   51.0510   27.6750 h1        1 ML1      0.100977
     49 H18        59.6350   50.4460   28.9100 h1        1 ML1      0.100977
     50 H19        59.0460   48.3830   25.8430 h1        1 ML1      0.130323
     51 H20        59.4880   48.3040   27.5870 h1        1 ML1      0.130323
     52 H21        60.6270   49.0240   26.3930 h1        1 ML1      0.130323
@<TRIPOS>BOND
     1    1    4 1
     2    1    5 1
     3    1   32 1
     4    2    3 1
     5    2    6 1
     6    2   33 1
     7    3    4 1
     8    3   34 1
     9    4   35 1
    10    5    6 1
    11    5    8 1
    12    6    7 1
    13    7    9 1
    14    7   11 1
    15    8   10 1
    16    8   12 1
    17   11   12 1
    18   11   15 1
    19   12   13 1
    20   13   14 1
    21   13   16 1
    22   14   15 1
    23   16   20 1
    24   16   36 1
    25   16   37 1
    26   17   18 1
    27   17   22 1
    28   17   38 1
    29   18   19 1
    30   18   39 1
    31   19   20 1
    32   19   40 1
    33   20   21 1
    34   21   22 1
    35   21   41 1
    36   22   23 1
    37   23   24 1
    38   23   27 1
    39   25   26 1
    40   25   30 1
    41   25   42 1
    42   25   43 1
    43   26   27 1
    44   26   44 1
    45   26   45 1
    46   27   28 1
    47   28   29 1
    48   28   46 1
    49   28   47 1
    50   29   30 1
    51   29   48 1
    52   29   49 1
    53   30   31 1
    54   31   50 1
    55   31   51 1
    56   31   52 1
@<TRIPOS>SUBSTRUCTURE
     1 ML1         1 TEMP              0 ****  ****    0 ROOT
