@<TRIPOS>MOLECULE
ML1
   20    21     1     0     0
SMALL
RESP Charge
 
 
@<TRIPOS>ATOM
      1 C1         59.2520   53.1440   18.4460 ca        1 ML1      0.028612
      2 C2         58.3000   52.5680   19.2600 ca        1 ML1     -0.046758
      3 C3         57.0040   52.5150   18.7860 ca        1 ML1     -0.046861
      4 C4         56.6350   53.0590   17.5620 ca        1 ML1     -0.052768
      5 C5         57.5990   53.6500   16.7630 ca        1 ML1     -0.192523
      6 C6         58.9160   53.6870   17.2020 ca        1 ML1     -0.087985
      7 S7         55.8690   51.6630   19.7650 sh        1 ML1     -0.308075
      8 N11        61.2180   52.4640   19.8810 na        1 ML1     -0.225942
      9 C12        60.6130   53.2270   18.9110 cc        1 ML1     -0.069376
     10 C13        61.5670   54.0930   18.4810 cd        1 ML1     -0.045150
     11 N14        62.6610   53.8920   19.1350 Y6        1 ML1      0.043893
     12 C15        62.5050   52.8630   19.9180 cc        1 ML1      0.022470
     13 H8         55.6170   53.0170   17.2090 ha        1 ML1      0.079854
     14 H9         57.3180   54.0600   15.8060 ha        1 ML1      0.122936
     15 H10        59.6670   54.1510   16.5790 ha        1 ML1      0.112512
     16 H16        61.4850   54.8730   17.7350 h4        1 ML1      0.107491
     17 H17        60.8230   51.6970   20.4020 hn        1 ML1      0.319645
     18 H18        63.2380   52.3920   20.5730 h5        1 ML1      0.167971
     19 H19        58.5680   52.1600   20.2290 ha        1 ML1      0.170142
     20 H20        54.8150   51.5580   18.9200 hs        1 ML1      0.204967
@<TRIPOS>BOND
     1    1    2 1
     2    1    6 1
     3    1    9 1
     4    2    3 1
     5    2   19 1
     6    3    4 1
     7    3    7 1
     8    4    5 1
     9    4   13 1
    10    5    6 1
    11    5   14 1
    12    6   15 1
    13    7   20 1
    14    8    9 1
    15    8   12 1
    16    8   17 1
    17    9   10 1
    18   10   11 1
    19   10   16 1
    20   11   12 1
    21   12   18 1
@<TRIPOS>SUBSTRUCTURE
     1 ML1         1 TEMP              0 ****  ****    0 ROOT
