@<TRIPOS>MOLECULE
ML1
   28    29     1     0     0
SMALL
RESP Charge
 
 
@<TRIPOS>ATOM
      1 C3        -24.2870   -5.1410  -19.8320 ce        1 ML1      0.109201
      2 N4        -23.3170   -4.4060  -19.4090 Y6        1 ML1     -0.146330
      3 N5        -25.3260   -5.5550  -19.0210 nh        1 ML1     -0.318937
      4 C4        -25.7380   -4.7810  -17.8640 c3        1 ML1     -0.023285
      5 C8        -29.9510   -4.3940  -18.1710 ca        1 ML1     -0.090709
      6 C9        -29.4070   -5.2240  -17.1970 ca        1 ML1     -0.168584
      7 C10       -28.0350   -5.3300  -17.0670 ca        1 ML1     -0.133349
      8 C11       -27.2230   -4.6060  -17.9310 ca        1 ML1      0.079147
      9 C12       -27.7670   -3.7400  -18.8840 ca        1 ML1     -0.109438
     10 C13       -29.1430   -3.6340  -19.0050 ca        1 ML1     -0.169978
     11 O27       -22.6080   -3.6060  -20.3270 oh        1 ML1     -0.372872
     12 H4        -26.0720   -6.0890  -19.4450 hn        1 ML1      0.259725
     13 H41       -25.4020   -5.2340  -16.9290 h1        1 ML1      0.064906
     14 H42       -25.3550   -3.7680  -17.9340 h1        1 ML1      0.064906
     15 H14       -31.0180   -4.3620  -18.2950 ha        1 ML1      0.098740
     16 H15       -30.0480   -5.8170  -16.5710 ha        1 ML1      0.118477
     17 H16       -27.6120   -6.0040  -16.3370 ha        1 ML1      0.121814
     18 H17       -27.1280   -3.1810  -19.5520 ha        1 ML1      0.134945
     19 H18       -29.5820   -2.9940  -19.7550 ha        1 ML1      0.123986
     20 H28       -23.0080   -3.8030  -21.1940 ho        1 ML1      0.302413
     21 N19       -24.6020   -5.9520  -23.4490 nd        1 ML1     -0.319228
     22 C20       -24.2210   -5.1470  -22.4970 cc        1 ML1      0.334286
     23 C21       -24.5270   -5.6490  -21.2190 cc        1 ML1      0.232521
     24 N22       -25.1350   -6.8080  -21.4080 nd        1 ML1     -0.316550
     25 O23       -25.1910   -7.0080  -22.7810 os        1 ML1      0.041035
     26 N24       -23.6060   -4.0060  -22.8710 nh        1 ML1     -0.305710
     27 H25       -22.9280   -4.0870  -23.6170 hn        1 ML1      0.149348
     28 H26       -24.1480   -3.1450  -22.9620 hn        1 ML1      0.240194
@<TRIPOS>BOND
     1    1    2 1
     2    1    3 1
     3    1   23 1
     4    2   11 1
     5    3    4 1
     6    3   12 1
     7    4    8 1
     8    4   13 1
     9    4   14 1
    10    5    6 1
    11    5   10 1
    12    5   15 1
    13    6    7 1
    14    6   16 1
    15    7    8 1
    16    7   17 1
    17    8    9 1
    18    9   10 1
    19    9   18 1
    20   10   19 1
    21   11   20 1
    22   21   22 1
    23   21   25 1
    24   22   23 1
    25   22   26 1
    26   23   24 1
    27   24   25 1
    28   26   27 1
    29   26   28 1
@<TRIPOS>SUBSTRUCTURE
     1 ML1         1 TEMP              0 ****  ****    0 ROOT
