@<TRIPOS>MOLECULE
PM1
   19    20     1     0     0
SMALL
RESP Charge
 
 
@<TRIPOS>ATOM
      1 C11        58.9330   53.7080   17.2010 ca        1 PM1     -0.083874
      2 C10        57.6000   53.6630   16.7320 ca        1 PM1     -0.184471
      3 C9         56.6550   53.0500   17.5860 ca        1 PM1     -0.116232
      4 C8         56.9340   52.4900   18.8450 ca        1 PM1     -0.202511
      5 C7         58.3100   52.5560   19.3000 ca        1 PM1     -0.100479
      6 C6         59.2580   53.1660   18.4580 ca        1 PM1      0.016739
      7 C5         60.7000   53.2210   18.9330 cc        1 PM1     -0.071454
      8 C4         61.6440   54.0940   18.4840 cd        1 PM1     -0.050366
      9 N3         62.7370   53.8520   19.0890 Y6        1 PM1      0.040010
     10 C2         62.5490   52.8660   19.9060 cc        1 PM1      0.007727
     11 N1         61.2770   52.4210   19.8560 na        1 PM1     -0.201261
     12 HN1        60.9190   51.7810   20.3050 hn        1 PM1      0.335644
     13 H9         55.7360   53.0130   17.2770 ha        1 PM1      0.102615
     14 H8         56.2400   52.0790   19.3840 ha        1 PM1      0.146353
     15 H7         58.5690   52.1900   20.1600 ha        1 PM1      0.128150
     16 H4         61.5060   54.7840   17.8160 h4        1 PM1      0.120073
     17 H2         63.2360   52.4940   20.4810 h5        1 PM1      0.168235
     18 H11        59.6250   54.1130   16.6550 ha        1 PM1      0.124955
     19 H10        57.3480   54.0330   15.8710 ha        1 PM1      0.141410
@<TRIPOS>BOND
     1    1    2 1
     2    1    6 1
     3    1   18 1
     4    2    3 1
     5    2   19 1
     6    3    4 1
     7    3   13 1
     8    4    5 1
     9    4   14 1
    10    5    6 1
    11    5   15 1
    12    6    7 1
    13    7    8 1
    14    7   11 1
    15    8    9 1
    16    8   16 1
    17    9   10 1
    18   10   11 1
    19   10   17 1
    20   11   12 1
@<TRIPOS>SUBSTRUCTURE
     1 PM1         1 TEMP              0 ****  ****    0 ROOT
