@<TRIPOS>MOLECULE
HM1
   72    76     1     0     0
SMALL
RESP Charge
 
 
@<TRIPOS>ATOM
      1 CHA        22.2600   -2.4990  -20.4020 ce        1 HM1     -0.040236
      2 CHB        20.7490   -6.8940  -21.7850 ce        1 HM1     -0.147833
      3 CHC        19.5700   -7.9190  -17.1900 ce        1 HM1     -0.149077
      4 CHD        21.3570   -3.6280  -15.7630 ce        1 HM1     -0.112702
      5 C1A        21.9270   -3.5880  -21.1710 cc        1 HM1     -0.034408
      6 C2A        22.0750   -3.6800  -22.6030 cc        1 HM1     -0.085396
      7 C3A        21.6760   -4.9000  -22.9810 cd        1 HM1     -0.006704
      8 C4A        21.2450   -5.6100  -21.8020 cd        1 HM1     -0.055280
      9 CMA        21.6380   -5.5100  -24.3990 c3        1 HM1     -0.071694
     10 CAA        22.6420   -2.5370  -23.4660 c3        1 HM1      0.002400
     11 CBA        21.6080   -2.0100  -24.4560 c3        1 HM1      0.023694
     12 CGA        20.8090   -0.8620  -23.8640 c         1 HM1      0.583949
     13 O1A        20.1610   -0.1220  -24.6610 o         1 HM1     -0.726875
     14 O2A        20.8030   -0.6850  -22.6130 o         1 HM1     -0.675242
     15 C1B        20.2540   -7.5430  -20.6750 cc        1 HM1     -0.049647
     16 C2B        19.5840   -8.8330  -20.6500 cc        1 HM1      0.049271
     17 C3B        19.2640   -9.1180  -19.3720 cd        1 HM1     -0.035865
     18 C4B        19.7110   -8.0080  -18.5570 cd        1 HM1     -0.056998
     19 CMB        19.3450   -9.6870  -21.9130 c3        1 HM1     -0.078465
     20 CAB        18.5310  -10.3340  -18.7520 cf        1 HM1     -0.102499
     21 CBB        17.7710  -11.1980  -19.4320 c2        1 HM1     -0.428178
     22 C1C        19.8900   -6.8270  -16.4170 cc        1 HM1     -0.064279
     23 C2C        19.5620   -6.6560  -15.0150 cc        1 HM1      0.023732
     24 C3C        20.0230   -5.4750  -14.6240 cd        1 HM1     -0.044746
     25 C4C        20.7080   -4.8440  -15.7470 cd        1 HM1     -0.050476
     26 CMC        18.7880   -7.6460  -14.1160 c3        1 HM1     -0.011833
     27 CAC        19.8530   -4.9750  -13.1790 cf        1 HM1     -0.122839
     28 CBC        19.6060   -3.6910  -12.9560 c2        1 HM1     -0.345635
     29 C1D        21.8180   -2.9620  -16.8780 cc        1 HM1     -0.034045
     30 C2D        22.5370   -1.6810  -16.9120 cc        1 HM1      0.016847
     31 C3D        22.7930   -1.3790  -18.1860 cd        1 HM1     -0.034688
     32 C4D        22.2360   -2.4410  -19.0160 cd        1 HM1     -0.021635
     33 CMD        22.9530   -0.7960  -15.6950 c3        1 HM1     -0.140208
     34 CAD        23.5170   -0.0930  -18.6550 c3        1 HM1      0.009164
     35 CBD        24.9560   -0.3440  -19.1020 c3        1 HM1      0.047723
     36 CGD        25.8550   -0.5230  -17.8950 c         1 HM1      0.626483
     37 O1D        26.6920   -1.4690  -17.9100 o         1 HM1     -0.743453
     38 O2D        25.7380    0.2610  -16.9070 o         1 HM1     -0.730550
     39 NA         21.4170   -4.7820  -20.7110 Y2        1 HM1     -0.035837
     40 NB         20.3110   -7.0730  -19.3800 Y3        1 HM1     -0.056803
     41 NC         20.5990   -5.7060  -16.8290 Y4        1 HM1     -0.067965
     42 ND         21.6500   -3.3860  -18.1790 Y5        1 HM1     -0.091386
     43 HMA1       21.7580   -6.4710  -24.3410 hc        1 HM1      0.024414
     44 HMA2       22.3500   -5.1270  -24.9350 hc        1 HM1      0.024414
     45 HMA3       20.7820   -5.3160  -24.8120 hc        1 HM1      0.024414
     46 HMB1       19.3410  -10.6270  -21.6720 hc        1 HM1      0.027173
     47 HMB2       20.0530   -9.5210  -22.5550 hc        1 HM1      0.027173
     48 HMB3       18.4900   -9.4510  -22.3070 hc        1 HM1      0.027173
     49 HMC1       18.1590   -8.1490  -14.6560 hc        1 HM1      0.002484
     50 HMC2       18.3060   -7.1540  -13.4330 hc        1 HM1      0.002484
     51 HMC3       19.4130   -8.2570  -13.6940 hc        1 HM1      0.002484
     52 HMD1       22.3150   -0.9150  -14.9750 hc        1 HM1      0.051868
     53 HMD2       22.9670    0.1360  -15.9620 hc        1 HM1      0.051868
     54 HMD3       23.8360   -1.0580  -15.3910 hc        1 HM1      0.051868
     55 HBB1       17.3440  -11.9360  -18.9700 ha        1 HM1      0.145863
     56 HBB2       17.6460  -11.0870  -20.3870 ha        1 HM1      0.145863
     57 HBC1       19.4980   -3.3690  -12.0480 ha        1 HM1      0.131442
     58 HBC2       19.5340   -3.0740  -13.7010 ha        1 HM1      0.131442
     59 HBA1       21.0070   -2.7270  -24.7110 hc        1 HM1     -0.027029
     60 HBA2       22.0540   -1.7130  -25.2650 hc        1 HM1     -0.027029
     61 HAA1       23.4220   -2.8520  -23.9490 hc        1 HM1      0.009592
     62 HAA2       22.9380   -1.8140  -22.8910 hc        1 HM1      0.009592
     63 HBD1       25.2690    0.4000  -19.6400 hc        1 HM1     -0.044153
     64 HBD2       24.9940   -1.1350  -19.6620 hc        1 HM1     -0.044153
     65 HAD1       23.5170    0.5540  -17.9320 hc        1 HM1      0.009779
     66 HAD2       23.0200    0.3020  -19.3890 hc        1 HM1      0.009779
     67 HHA        22.5260   -1.7300  -20.8520 ha        1 HM1      0.156846
     68 HHB        20.7480   -7.3620  -22.5890 ha        1 HM1      0.150444
     69 HHC        19.2280   -8.6640  -16.7500 ha        1 HM1      0.123142
     70 HHD        21.4980   -3.2170  -14.9410 ha        1 HM1      0.122180
     71 HAB        18.6310  -10.4790  -17.7980 ha        1 HM1      0.140960
     72 HAC        19.9260   -5.5940  -12.4360 ha        1 HM1      0.132823
@<TRIPOS>BOND
     1    1    5 1
     2    1   32 1
     3    1   67 1
     4    2    8 1
     5    2   15 1
     6    2   68 1
     7    3   18 1
     8    3   22 1
     9    3   69 1
    10    4   25 1
    11    4   29 1
    12    4   70 1
    13    5    6 1
    14    5   39 1
    15    6    7 1
    16    6   10 1
    17    7    8 1
    18    7    9 1
    19    8   39 1
    20    9   43 1
    21    9   44 1
    22    9   45 1
    23   10   11 1
    24   10   61 1
    25   10   62 1
    26   11   12 1
    27   11   59 1
    28   11   60 1
    29   12   13 1
    30   12   14 1
    31   15   16 1
    32   15   40 1
    33   16   17 1
    34   16   19 1
    35   17   18 1
    36   17   20 1
    37   18   40 1
    38   19   46 1
    39   19   47 1
    40   19   48 1
    41   20   21 1
    42   20   71 1
    43   21   55 1
    44   21   56 1
    45   22   23 1
    46   22   41 1
    47   23   24 1
    48   23   26 1
    49   24   25 1
    50   24   27 1
    51   25   41 1
    52   26   49 1
    53   26   50 1
    54   26   51 1
    55   27   28 1
    56   27   72 1
    57   28   57 1
    58   28   58 1
    59   29   30 1
    60   29   42 1
    61   30   31 1
    62   30   33 1
    63   31   32 1
    64   31   34 1
    65   32   42 1
    66   33   52 1
    67   33   53 1
    68   33   54 1
    69   34   35 1
    70   34   65 1
    71   34   66 1
    72   35   36 1
    73   35   63 1
    74   35   64 1
    75   36   37 1
    76   36   38 1
@<TRIPOS>SUBSTRUCTURE
     1 HM1         1 TEMP              0 ****  ****    0 ROOT
