@<TRIPOS>MOLECULE
HD1
   17    17     1     0     0
SMALL
RESP Charge
 
 
@<TRIPOS>ATOM
      1 N          20.4580   39.6250   32.9330 N         1 HD1     -0.415700
      2 H          21.0440   39.4370   32.1320 H         1 HD1      0.216183
      3 CA         19.5280   38.5830   33.3520 CX        1 HD1      0.018800
      4 HA         18.5230   39.0050   33.3920 H1        1 HD1      0.091474
      5 CB         19.5340   37.4460   32.3180 CT        1 HD1      0.007283
      6 HB2        19.1650   37.8470   31.3730 HC        1 HD1      0.042527
      7 HB3        20.5340   37.0870   32.1340 HC        1 HD1      0.042527
      8 CG         18.6750   36.2740   32.6820 CC        1 HD1     -0.078117
      9 ND1        19.2000   35.0860   33.1460 NA        1 HD1     -0.165804
     10 HD1        20.1810   34.9010   33.2920 H         1 HD1      0.278706
     11 CE1        18.2170   34.2360   33.3780 CR        1 HD1     -0.008743
     12 HE1        18.3150   33.2400   33.7730 H5        1 HD1      0.174413
     13 NE2        17.0750   34.8280   33.0790 Y1        1 HD1     -0.039317
     14 CD2        17.3340   36.1010   32.6370 CV        1 HD1     -0.073781
     15 HD2        16.5470   36.7460   32.3640 H4        1 HD1      0.143812
     16 C          19.9010   38.0880   34.7560 C         1 HD1      0.597300
     17 O          19.0630   38.0890   35.6550 O         1 HD1     -0.567900
@<TRIPOS>BOND
     1    1    2 1
     2    1    3 1
     3    3    4 1
     4    3    5 1
     5    3   16 1
     6    5    6 1
     7    5    7 1
     8    5    8 1
     9    8    9 1
    10    8   14 1
    11    9   10 1
    12    9   11 1
    13   11   12 1
    14   11   13 1
    15   13   14 1
    16   14   15 1
    17   16   17 1
@<TRIPOS>SUBSTRUCTURE
     1 HD1         1 TEMP              0 ****  ****    0 ROOT
