@<TRIPOS>MOLECULE
ML1
   42    45     1     0     0
SMALL
RESP Charge
 
 
@<TRIPOS>ATOM
      1 C1          7.8890   30.6470   31.2090 ca        1 ML1     -0.095433
      2 C2          7.0570   29.5350   31.1570 ca        1 ML1     -0.043921
      3 C3          7.5850   28.2780   30.8740 ca        1 ML1     -0.090170
      4 C4          8.9380   28.1190   30.6110 ca        1 ML1     -0.079632
      5 C5          9.7740   29.2250   30.6770 ca        1 ML1     -0.069573
      6 C6          9.2560   30.4810   31.0080 ca        1 ML1      0.006487
      7 Br1         6.4660   26.7490   30.8770 br        1 ML1     -0.082251
      8 C7         12.1260   32.6550   31.9630 cc        1 ML1     -0.008753
      9 N1         11.2820   31.5580   32.0150 na        1 ML1      0.109796
     10 C8         10.1840   31.6240   31.1580 cc        1 ML1      0.000538
     11 C9         10.1370   32.8520   30.5210 cd        1 ML1     -0.273807
     12 S1         11.5270   33.8660   30.8580 ss        1 ML1      0.067039
     13 N2         13.1720   32.5290   32.7370 Y6        1 ML1     -0.041739
     14 C10        13.0070   31.3770   33.3470 cd        1 ML1     -0.122164
     15 C11        11.8470   30.7080   32.9660 cc        1 ML1      0.025765
     16 C12        11.2290   29.3870   33.3990 c3        1 ML1      0.027348
     17 N3         11.8080   28.9000   34.6490 n         1 ML1     -0.414302
     18 C13        11.1070   28.8270   35.7840 c         1 ML1      0.593227
     19 O1          9.9240   28.5030   35.8410 o         1 ML1     -0.519082
     20 N4         11.7770   29.3750   36.7990 n         1 ML1     -0.489662
     21 C14        10.8440   33.0640   38.5290 ca        1 ML1      0.003638
     22 C15         9.7960   32.2960   38.0220 ca        1 ML1     -0.216160
     23 C16        10.0640   31.0430   37.4770 ca        1 ML1     -0.059500
     24 C17        11.3830   30.5600   37.4370 ca        1 ML1      0.139950
     25 C18        12.4120   31.3130   37.9910 ca        1 ML1     -0.122479
     26 C19        12.1480   32.5640   38.5290 ca        1 ML1     -0.147795
     27 N5         10.4080   35.4760   39.4280 n1        1 ML1     -0.476916
     28 C20        10.5930   34.4060   39.0290 cg        1 ML1      0.328778
     29 H1          7.4820   31.6180   31.4540 ha        1 ML1      0.103631
     30 H2          6.0160   29.6380   31.4020 ha        1 ML1      0.101172
     31 H3          9.3310   27.1420   30.3710 ha        1 ML1      0.126623
     32 H4         10.8280   29.1120   30.4750 ha        1 ML1      0.137607
     33 H5          9.3890   33.2160   29.8320 h4        1 ML1      0.200907
     34 H6         13.7360   31.0260   34.0670 h4        1 ML1      0.155716
     35 H7         11.3850   28.6250   32.6470 h1        1 ML1      0.082228
     36 H8         10.1430   29.4900   33.4870 h1        1 ML1      0.082228
     37 H9         12.8150   28.8360   34.6870 hn        1 ML1      0.280811
     38 H10        12.7730   29.2500   36.7580 hn        1 ML1      0.334362
     39 H11         8.7840   32.6730   38.0200 ha        1 ML1      0.152118
     40 H12         9.2490   30.4760   37.0530 ha        1 ML1      0.123233
     41 H13        13.4280   30.9580   37.9610 ha        1 ML1      0.129503
     42 H14        12.9770   33.1330   38.9240 ha        1 ML1      0.122253
@<TRIPOS>BOND
     1    1    2 1
     2    1    6 1
     3    1   29 1
     4    2    3 1
     5    2   30 1
     6    3    4 1
     7    3    7 1
     8    4    5 1
     9    4   31 1
    10    5    6 1
    11    5   32 1
    12    6   10 1
    13    8    9 1
    14    8   12 1
    15    8   13 1
    16    9   10 1
    17    9   15 1
    18   10   11 1
    19   11   12 1
    20   11   33 1
    21   13   14 1
    22   14   15 1
    23   14   34 1
    24   15   16 1
    25   16   17 1
    26   16   35 1
    27   16   36 1
    28   17   18 1
    29   17   37 1
    30   18   19 1
    31   18   20 1
    32   20   24 1
    33   20   38 1
    34   21   22 1
    35   21   26 1
    36   21   28 1
    37   22   23 1
    38   22   39 1
    39   23   24 1
    40   23   40 1
    41   24   25 1
    42   25   26 1
    43   25   41 1
    44   26   42 1
    45   27   28 1
@<TRIPOS>SUBSTRUCTURE
     1 ML1         1 TEMP              0 ****  ****    0 ROOT
