@<TRIPOS>MOLECULE
ML1
   27    30     1     0     0
SMALL
RESP Charge
 
 
@<TRIPOS>ATOM
      1 C1         58.7320   53.4400   23.7730 ca        1 ML1     -0.160111
      2 N1         61.7150   53.9950   21.6150 nc        1 ML1     -0.173460
      3 O1         57.7570   53.0790   21.0460 o         1 ML1     -0.478357
      4 C2         61.4590   54.0570   24.0040 ca        1 ML1     -0.076727
      5 N2         59.8740   53.5180   20.2370 n         1 ML1      0.085934
      6 O2         63.0960   54.1880   19.0150 Y6        1 ML1     -0.013997
      7 C3         60.6620   53.9410   25.1470 ca        1 ML1     -0.146933
      8 C4         59.3040   53.6340   25.0310 ca        1 ML1     -0.091844
      9 C5         59.5300   53.5570   22.6290 ca        1 ML1      0.011786
     10 C6         60.8930   53.8670   22.7440 ca        1 ML1      0.068693
     11 C7         61.2040   53.8260   20.4410 cd        1 ML1      0.064090
     12 C8         59.6670   53.4080   18.8500 ca        1 ML1      0.005195
     13 C9         60.8620   53.6490   18.1800 ca        1 ML1     -0.040178
     14 C10        60.9320   53.6060   16.7860 ca        1 ML1     -0.099871
     15 C11        59.7770   53.3130   16.0590 ca        1 ML1      0.142154
     16 C12        58.5700   53.0680   16.7200 ca        1 ML1     -0.160906
     17 C13        58.5100   53.1130   18.1160 ca        1 ML1     -0.162662
     18 C14        58.9430   53.3560   21.2420 c         1 ML1      0.342942
     19 C15        61.9020   53.9260   19.1740 c         1 ML1      0.144897
     20 F01        59.8260   53.2680   14.7110 f         1 ML1     -0.149574
     21 H1         57.6790   53.2030   23.6960 ha        1 ML1      0.110535
     22 H4         58.6960   53.5470   25.9190 ha        1 ML1      0.095960
     23 H2         62.5090   54.2950   24.0890 ha        1 ML1      0.176715
     24 H3         61.0910   54.0880   26.1260 ha        1 ML1      0.126426
     25 H10        61.8620   53.7950   16.2670 ha        1 ML1      0.125575
     26 H12        57.6790   52.8420   16.1520 ha        1 ML1      0.121029
     27 H13        57.5660   52.9200   18.6050 ha        1 ML1      0.139323
@<TRIPOS>BOND
     1    1    8 1
     2    1    9 1
     3    1   21 1
     4    2   10 1
     5    2   11 1
     6    3   18 1
     7    4    7 1
     8    4   10 1
     9    4   23 1
    10    5   11 1
    11    5   12 1
    12    5   18 1
    13    6   19 1
    14    7    8 1
    15    7   24 1
    16    8   22 1
    17    9   10 1
    18    9   18 1
    19   11   19 1
    20   12   13 1
    21   12   17 1
    22   13   14 1
    23   13   19 1
    24   14   15 1
    25   14   25 1
    26   15   16 1
    27   15   20 1
    28   16   17 1
    29   16   26 1
    30   17   27 1
@<TRIPOS>SUBSTRUCTURE
     1 ML1         1 TEMP              0 ****  ****    0 ROOT
