@<TRIPOS>MOLECULE
ML1
   27    30     1     0     0
SMALL
RESP Charge
 
 
@<TRIPOS>ATOM
      1 C1         58.7320   53.4400   23.7730 ca        1 ML1     -0.107819
      2 C2         61.4590   54.0570   24.0040 ca        1 ML1     -0.048682
      3 C3         60.6620   53.9410   25.1470 ca        1 ML1     -0.121373
      4 C4         59.3040   53.6340   25.0310 ca        1 ML1     -0.155777
      5 C5         59.5300   53.5570   22.6290 ca        1 ML1      0.021625
      6 C6         60.8930   53.8670   22.7440 ca        1 ML1      0.028141
      7 N1         61.7150   53.9950   21.6150 nc        1 ML1     -0.124320
      8 C7         61.2040   53.8260   20.4410 cd        1 ML1      0.064274
      9 N2         59.8740   53.5180   20.2370 n         1 ML1      0.091132
     10 C8         59.6670   53.4080   18.8500 ca        1 ML1      0.025919
     11 C9         60.8620   53.6490   18.1800 ca        1 ML1      0.022391
     12 C10        60.9320   53.6060   16.7860 ca        1 ML1     -0.122310
     13 C11        59.7770   53.3130   16.0590 ca        1 ML1     -0.118201
     14 C12        58.5700   53.0680   16.7200 ca        1 ML1     -0.158572
     15 C13        58.5100   53.1130   18.1160 ca        1 ML1     -0.141576
     16 C14        58.9430   53.3560   21.2420 c         1 ML1      0.319113
     17 O1         57.7570   53.0790   21.0460 o         1 ML1     -0.482508
     18 C15        61.9020   53.9260   19.1740 c         1 ML1      0.112618
     19 O2         63.0960   54.1880   19.0150 Y6        1 ML1     -0.011724
     20 H1         57.6790   53.2030   23.6960 ha        1 ML1      0.098038
     21 H2         62.5090   54.2950   24.0890 ha        1 ML1      0.138281
     22 H3         61.0910   54.0880   26.1260 ha        1 ML1      0.125474
     23 H4         58.6960   53.5470   25.9190 ha        1 ML1      0.109504
     24 H10        61.8620   53.7950   16.2670 ha        1 ML1      0.122270
     25 H11        59.8160   53.2770   14.9790 ha        1 ML1      0.099974
     26 H12        57.6790   52.8420   16.1520 ha        1 ML1      0.114331
     27 H13        57.5660   52.9200   18.6050 ha        1 ML1      0.125924
@<TRIPOS>BOND
     1    1    4 1
     2    1    5 1
     3    1   20 1
     4    2    3 1
     5    2    6 1
     6    2   21 1
     7    3    4 1
     8    3   22 1
     9    4   23 1
    10    5    6 1
    11    5   16 1
    12    6    7 1
    13    7    8 1
    14    8    9 1
    15    8   18 1
    16    9   10 1
    17    9   16 1
    18   10   11 1
    19   10   15 1
    20   11   12 1
    21   11   18 1
    22   12   13 1
    23   12   24 1
    24   13   14 1
    25   13   25 1
    26   14   15 1
    27   14   26 1
    28   15   27 1
    29   16   17 1
    30   18   19 1
@<TRIPOS>SUBSTRUCTURE
     1 ML1         1 TEMP              0 ****  ****    0 ROOT
