@<TRIPOS>MOLECULE
HM1
   72    76     1     0     0
SMALL
RESP Charge
 
 
@<TRIPOS>ATOM
      1 CHA        16.8250   30.0160   31.6960 ce        1 HM1      0.000699
      2 CHB        14.5710   32.3810   35.2840 ce        1 HM1     -0.160870
      3 CHC        13.1270   35.8810   32.2710 ce        1 HM1     -0.093030
      4 CHD        15.4210   33.5730   28.6900 ce        1 HM1     -0.086555
      5 C1A        16.2800   30.3210   32.9210 cc        1 HM1     -0.008543
      6 C2A        16.2750   29.4670   34.0870 cc        1 HM1     -0.089756
      7 C3A        15.6570   30.1260   35.0730 cd        1 HM1     -0.022838
      8 C4A        15.2440   31.4160   34.5680 cd        1 HM1     -0.120441
      9 CMA        15.4090   29.6290   36.5090 c3        1 HM1     -0.066848
     10 CAA        16.8930   28.0590   34.1610 c3        1 HM1     -0.052094
     11 CBA        15.8080   26.9990   33.9770 c3        1 HM1      0.026700
     12 CGA        15.2150   27.0740   32.5940 c         1 HM1      0.543290
     13 O1A        15.8450   26.5360   31.6480 o         1 HM1     -0.687480
     14 O2A        14.1100   27.6570   32.4410 o         1 HM1     -0.633131
     15 C1B        13.9930   33.5180   34.7710 cc        1 HM1     -0.076173
     16 C2B        13.2280   34.4680   35.5450 cc        1 HM1      0.051610
     17 C3B        12.8240   35.4510   34.7170 cd        1 HM1     -0.060006
     18 C4B        13.3250   35.1260   33.4000 cd        1 HM1     -0.057957
     19 CMB        13.0200   34.2550   37.0560 c3        1 HM1     -0.047677
     20 CAB        11.9830   36.7280   34.9510 cf        1 HM1     -0.102000
     21 CBB        11.3680   37.0230   36.1000 c2        1 HM1     -0.414951
     22 C1C        13.5780   35.5170   31.0310 cc        1 HM1     -0.070367
     23 C2C        13.2270   36.1780   29.8020 cc        1 HM1      0.025660
     24 C3C        13.8350   35.5390   28.8080 cd        1 HM1     -0.046021
     25 C4C        14.6230   34.4610   29.3760 cd        1 HM1     -0.034292
     26 CMC        12.2770   37.3860   29.6830 c3        1 HM1     -0.018802
     27 CAC        13.7240   35.9210   27.3210 cf        1 HM1     -0.121443
     28 CBC        13.6990   34.9510   26.4030 c2        1 HM1     -0.342618
     29 C1D        16.0210   32.4440   29.2030 cc        1 HM1     -0.060093
     30 C2D        16.8690   31.5400   28.4640 cc        1 HM1      0.012561
     31 C3D        17.2680   30.5600   29.2770 cd        1 HM1     -0.043592
     32 C4D        16.6770   30.8010   30.5750 cd        1 HM1     -0.027080
     33 CMD        17.2330   31.7200   26.9800 c3        1 HM1     -0.027377
     34 CAD        18.1720   29.3670   28.9170 c3        1 HM1     -0.085063
     35 CBD        19.5290   29.5190   29.6030 c3        1 HM1      0.002577
     36 CGD        20.4610   30.3780   28.7880 c         1 HM1      0.595840
     37 O1D        21.2340   31.1510   29.4100 o         1 HM1     -0.745009
     38 O2D        20.4340   30.2920   27.5310 o         1 HM1     -0.722578
     39 NA         15.6370   31.5000   33.2480 Y2        1 HM1     -0.017399
     40 NB         14.0350   33.9470   33.4660 Y3        1 HM1     -0.032807
     41 NC         14.4370   34.4740   30.7410 Y4        1 HM1     -0.037333
     42 ND         15.9250   31.9590   30.4890 Y5        1 HM1     -0.062294
     43 HMA1       15.3200   28.6630   36.5070 hc        1 HM1      0.028051
     44 HMA2       14.5940   30.0270   36.8530 hc        1 HM1      0.028051
     45 HMA3       16.1560   29.8830   37.0730 hc        1 HM1      0.028051
     46 HMB1       12.9340   35.1150   37.4950 hc        1 HM1      0.018040
     47 HMB2       13.7810   33.7790   37.4240 hc        1 HM1      0.018040
     48 HMB3       12.2140   33.7360   37.2020 hc        1 HM1      0.018040
     49 HMC1       11.6150   37.3480   30.3910 hc        1 HM1      0.003284
     50 HMC2       11.8310   37.3630   28.8220 hc        1 HM1      0.003284
     51 HMC3       12.7870   38.2080   29.7610 hc        1 HM1      0.003284
     52 HMD1       18.1110   31.3430   26.8140 hc        1 HM1      0.016224
     53 HMD2       17.2410   32.6650   26.7610 hc        1 HM1      0.016224
     54 HMD3       16.5770   31.2660   26.4280 hc        1 HM1      0.016224
     55 HBB1       10.8550   37.8430   36.1790 ha        1 HM1      0.142244
     56 HBB2       11.4340   36.4170   36.8550 ha        1 HM1      0.142244
     57 HBC1       13.6290   35.1760   25.4620 ha        1 HM1      0.130105
     58 HBC2       13.7500   34.0220   26.6770 ha        1 HM1      0.130105
     59 HBA1       15.1110   27.1250   34.6400 hc        1 HM1     -0.020054
     60 HBA2       16.1830   26.1170   34.1250 hc        1 HM1     -0.020054
     61 HAA1       17.3340   27.9360   35.0160 hc        1 HM1      0.028140
     62 HAA2       17.5720   27.9600   33.4750 hc        1 HM1      0.028140
     63 HBD1       19.9260   28.6440   29.7370 hc        1 HM1     -0.024468
     64 HBD2       19.4080   29.9130   30.4810 hc        1 HM1     -0.024468
     65 HAD1       18.2900   29.3190   27.9550 hc        1 HM1      0.053039
     66 HAD2       17.7520   28.5370   29.1930 hc        1 HM1      0.053039
     67 HHA        17.3230   29.2340   31.6200 ha        1 HM1      0.140884
     68 HHB        14.5010   32.2510   36.2020 ha        1 HM1      0.177968
     69 HHC        12.6620   36.6820   32.3530 ha        1 HM1      0.106217
     70 HHD        15.5700   33.7540   27.7900 ha        1 HM1      0.103337
     71 HAB        11.8960   37.3550   34.2160 ha        1 HM1      0.146894
     72 HAC        13.6730   36.8520   27.0550 ha        1 HM1      0.127434
@<TRIPOS>BOND
     1    1    5 1
     2    1   32 1
     3    1   67 1
     4    2    8 1
     5    2   15 1
     6    2   68 1
     7    3   18 1
     8    3   22 1
     9    3   69 1
    10    4   25 1
    11    4   29 1
    12    4   70 1
    13    5    6 1
    14    5   39 1
    15    6    7 1
    16    6   10 1
    17    7    8 1
    18    7    9 1
    19    8   39 1
    20    9   43 1
    21    9   44 1
    22    9   45 1
    23   10   11 1
    24   10   61 1
    25   10   62 1
    26   11   12 1
    27   11   59 1
    28   11   60 1
    29   12   13 1
    30   12   14 1
    31   15   16 1
    32   15   40 1
    33   16   17 1
    34   16   19 1
    35   17   18 1
    36   17   20 1
    37   18   40 1
    38   19   46 1
    39   19   47 1
    40   19   48 1
    41   20   21 1
    42   20   71 1
    43   21   55 1
    44   21   56 1
    45   22   23 1
    46   22   41 1
    47   23   24 1
    48   23   26 1
    49   24   25 1
    50   24   27 1
    51   25   41 1
    52   26   49 1
    53   26   50 1
    54   26   51 1
    55   27   28 1
    56   27   72 1
    57   28   57 1
    58   28   58 1
    59   29   30 1
    60   29   42 1
    61   30   31 1
    62   30   33 1
    63   31   32 1
    64   31   34 1
    65   32   42 1
    66   33   52 1
    67   33   53 1
    68   33   54 1
    69   34   35 1
    70   34   65 1
    71   34   66 1
    72   35   36 1
    73   35   63 1
    74   35   64 1
    75   36   37 1
    76   36   38 1
@<TRIPOS>SUBSTRUCTURE
     1 HM1         1 TEMP              0 ****  ****    0 ROOT
