@<TRIPOS>MOLECULE
ML1
   43    46     1     0     0
SMALL
RESP Charge
 
 
@<TRIPOS>ATOM
      1 CAA        12.2010   27.1570   36.4390 c3        1 ML1     -0.061354
      2 HAA1       13.2160   27.6040   36.3220 hc        1 ML1      0.042746
      3 HAA2       12.3910   26.1910   35.9150 hc        1 ML1      0.042746
      4 CAF        11.8270   26.9540   37.9000 c3        1 ML1     -0.049110
      5 HAF1       10.8990   26.3490   38.0260 hc        1 ML1      0.009461
      6 HAF2       12.5280   26.2690   38.4320 hc        1 ML1      0.009461
      7 CAE        11.7290   28.3290   38.5640 c3        1 ML1     -0.017971
      8 HAE1       11.5570   28.2490   39.6630 hc        1 ML1      0.004458
      9 HAE2       12.7150   28.8500   38.5890 hc        1 ML1      0.004458
     10 CAD        10.6650   29.1670   37.8860 c3        1 ML1     -0.064233
     11 HAD1        9.6420   28.7420   38.0120 hc        1 ML1      0.009935
     12 HAD2       10.4920   30.1390   38.4040 hc        1 ML1      0.009935
     13 CAC        11.0470   29.3470   36.4180 c3        1 ML1     -0.051100
     14 HAC1       10.3560   30.0390   35.8820 hc        1 ML1      0.046491
     15 HAC2       11.9860   29.9360   36.2940 hc        1 ML1      0.046491
     16 CAB        11.1290   27.9810   35.7510 c3        1 ML1     -0.036496
     17 HAB        10.1450   27.4620   35.8220 hc        1 ML1      0.035620
     18 CAG        11.5080   28.1850   34.2840 c3        1 ML1     -0.022520
     19 HAG        11.6190   27.1880   33.7970 h1        1 ML1      0.064219
     20 OAI        12.7500   28.8800   34.2030 oh        1 ML1     -0.236782
     21 HAI        13.4620   28.4110   34.6210 ho        1 ML1      0.208769
     22 CAH        10.3550   28.9450   33.6070 c3        1 ML1     -0.050867
     23 HAH1        9.4040   28.3690   33.6960 hc        1 ML1      0.026756
     24 HAH2       10.0860   29.8510   34.1990 hc        1 ML1      0.026756
     25 CAJ        10.6200   29.3250   32.1280 c3        1 ML1      0.056117
     26 HAJ        10.9680   28.3840   31.6410 h1        1 ML1      0.086795
     27 CAK         9.5240   29.7390   31.3830 ca        1 ML1      0.074833
     28 CAR         8.3280   29.1880   31.2050 ca        1 ML1     -0.196357
     29 HAR         8.0700   28.2490   31.7220 ha        1 ML1      0.106582
     30 CAS         7.4030   29.7960   30.3670 ca        1 ML1     -0.145163
     31 HAS         6.4000   29.3580   30.2280 ha        1 ML1      0.093784
     32 CAT         7.7600   30.9620   29.7070 ca        1 ML1     -0.134761
     33 HAT         7.0510   31.4670   29.0300 ha        1 ML1      0.097736
     34 CAU         9.0280   31.4780   29.9180 ca        1 ML1     -0.159041
     35 HAU         9.3320   32.4110   29.4140 ha        1 ML1      0.103785
     36 CAL         9.8810   30.8530   30.7260 ca        1 ML1      0.072790
     37 CAM        11.1160   31.2130   31.0620 cc        1 ML1     -0.001183
     38 NAN        11.6730   30.3030   31.8730 na        1 ML1      0.065622
     39 CAQ        12.8750   30.7380   32.2060 cc        1 ML1      0.020472
     40 HAQ        13.5720   30.2680   32.9200 h5        1 ML1      0.074160
     41 NAP        13.0790   31.8440   31.5170 Y6        1 ML1     -0.005828
     42 CAO        12.0130   32.1500   30.8060 cd        1 ML1     -0.198991
     43 HAO        11.8930   33.0150   30.1320 h4        1 ML1      0.161092
@<TRIPOS>BOND
     1    1    2 1
     2    1    3 1
     3    1    4 1
     4    1   16 1
     5    4    5 1
     6    4    6 1
     7    4    7 1
     8    7    8 1
     9    7    9 1
    10    7   10 1
    11   10   11 1
    12   10   12 1
    13   10   13 1
    14   13   14 1
    15   13   15 1
    16   13   16 1
    17   16   17 1
    18   16   18 1
    19   18   19 1
    20   18   20 1
    21   18   22 1
    22   20   21 1
    23   22   23 1
    24   22   24 1
    25   22   25 1
    26   25   26 1
    27   25   27 1
    28   25   38 1
    29   27   28 1
    30   27   36 1
    31   28   29 1
    32   28   30 1
    33   30   31 1
    34   30   32 1
    35   32   33 1
    36   32   34 1
    37   34   35 1
    38   34   36 1
    39   36   37 1
    40   37   38 1
    41   37   42 1
    42   38   39 1
    43   39   40 1
    44   39   41 1
    45   41   42 1
    46   42   43 1
@<TRIPOS>SUBSTRUCTURE
     1 ML1         1 TEMP              0 ****  ****    0 ROOT
