@<TRIPOS>MOLECULE
ML1
   27    30     1     0     0
SMALL
RESP Charge
 
 
@<TRIPOS>ATOM
      1 C1         58.7300   53.4400   23.7730 ca        1 ML1     -0.133597
      2 H1         57.6580   53.1970   23.6810 ha        1 ML1      0.104727
      3 C2         61.4580   54.0570   24.0030 ca        1 ML1     -0.124106
      4 H2         62.5300   54.2980   24.0970 ha        1 ML1      0.171425
      5 C3         60.6610   53.9410   25.1470 ca        1 ML1     -0.121581
      6 H3         61.1070   54.0930   26.1450 ha        1 ML1      0.126951
      7 C4         59.3030   53.6340   25.0310 ca        1 ML1      0.176582
      8 F1         58.5420   53.5260   26.1410 f         1 ML1     -0.165767
      9 C5         59.5280   53.5570   22.6290 ca        1 ML1      0.004182
     10 C6         60.8910   53.8670   22.7440 ca        1 ML1      0.044946
     11 N1         61.7140   53.9950   21.6160 nc        1 ML1     -0.117801
     12 C7         61.2030   53.8250   20.4400 cd        1 ML1      0.061025
     13 N2         59.8730   53.5170   20.2370 n         1 ML1      0.100846
     14 C8         59.6670   53.4070   18.8490 ca        1 ML1      0.011007
     15 C9         60.8620   53.6490   18.1800 ca        1 ML1      0.030923
     16 C10        60.9320   53.6070   16.7860 ca        1 ML1     -0.117718
     17 H10        61.8860   53.8020   16.2670 ha        1 ML1      0.118071
     18 C11        59.7770   53.3140   16.0590 ca        1 ML1     -0.121854
     19 H11        59.8170   53.2760   14.9570 ha        1 ML1      0.097198
     20 C12        58.5700   53.0680   16.7190 ca        1 ML1     -0.139757
     21 H12        57.6620   52.8380   16.1370 ha        1 ML1      0.106806
     22 C13        58.5100   53.1130   18.1150 ca        1 ML1     -0.155871
     23 H13        57.5570   52.9180   18.6360 ha        1 ML1      0.126539
     24 C14        58.9420   53.3560   21.2410 c         1 ML1      0.317402
     25 O1         57.7560   53.0780   21.0450 o         1 ML1     -0.477346
     26 C15        61.9020   53.9260   19.1750 c         1 ML1      0.128390
     27 O2         63.0960   54.1880   19.0160 Y6        1 ML1     -0.005983
@<TRIPOS>BOND
     1    1    2 1
     2    1    7 1
     3    1    9 1
     4    3    4 1
     5    3    5 1
     6    3   10 1
     7    5    6 1
     8    5    7 1
     9    7    8 1
    10    9   10 1
    11    9   24 1
    12   10   11 1
    13   11   12 1
    14   12   13 1
    15   12   26 1
    16   13   14 1
    17   13   24 1
    18   14   15 1
    19   14   22 1
    20   15   16 1
    21   15   26 1
    22   16   17 1
    23   16   18 1
    24   18   19 1
    25   18   20 1
    26   20   21 1
    27   20   22 1
    28   22   23 1
    29   24   25 1
    30   26   27 1
@<TRIPOS>SUBSTRUCTURE
     1 ML1         1 TEMP              0 ****  ****    0 ROOT
