@<TRIPOS>MOLECULE
HD1
   17    17     1     0     0
SMALL
RESP Charge
 
 
@<TRIPOS>ATOM
      1 N          20.3640   38.6090   32.7740 N         1 HD1     -0.415700
      2 H          20.8190   38.5610   31.8730 H         1 HD1      0.220459
      3 CA         19.4220   37.5610   33.1270 CX        1 HD1      0.018800
      4 HA         18.4040   37.9470   33.1810 H1        1 HD1      0.082201
      5 CB         19.4840   36.5040   32.0380 CT        1 HD1     -0.033442
      6 HB2        19.2410   36.9470   31.0720 HC        1 HD1      0.048796
      7 HB3        20.4810   36.0650   31.9960 HC        1 HD1      0.048796
      8 CG         18.5360   35.3830   32.2410 CC        1 HD1     -0.032004
      9 ND1        18.9350   34.1460   32.6950 NA        1 HD1     -0.137766
     10 HD1        19.8860   33.8950   32.9260 H         1 HD1      0.272878
     11 CE1        17.8830   33.3560   32.7770 CR        1 HD1      0.006706
     12 HE1        17.9850   32.3240   33.1130 H5        1 HD1      0.129741
     13 NE2        16.8220   34.0420   32.4000 Y1        1 HD1     -0.031918
     14 CD2        17.2020   35.3100   32.0530 CV        1 HD1     -0.136625
     15 HD2        16.4580   36.0260   31.7050 H4        1 HD1      0.145033
     16 C          19.7190   36.9680   34.5020 C         1 HD1      0.597300
     17 O          18.7990   36.6220   35.2520 O         1 HD1     -0.567900
@<TRIPOS>BOND
     1    1    2 1
     2    1    3 1
     3    3    4 1
     4    3    5 1
     5    3   16 1
     6    5    6 1
     7    5    7 1
     8    5    8 1
     9    8    9 1
    10    8   14 1
    11    9   10 1
    12    9   11 1
    13   11   12 1
    14   11   13 1
    15   13   14 1
    16   14   15 1
    17   16   17 1
@<TRIPOS>SUBSTRUCTURE
     1 HD1         1 TEMP              0 ****  ****    0 ROOT
