@<TRIPOS>MOLECULE
ML1
   44    47     1     0     0
SMALL
RESP Charge
 
 
@<TRIPOS>ATOM
      1 C2         15.5630    3.2110   20.7510 c3        1 ML1      0.002129
      2 C3         14.2930    3.1960   19.9240 ca        1 ML1      0.000337
      3 N4         16.4620    3.8360   19.8070 na        1 ML1      0.013202
      4 C5         15.4680    3.9880   22.0870 c3        1 ML1     -0.037844
      5 C6         17.7640    4.2400   19.7340 cc        1 ML1      0.022529
      6 C7         15.9000    4.1520   18.6020 cc        1 ML1      0.018438
      7 C10        16.4650    3.5450   23.1850 c3        1 ML1     -0.022260
      8 C12        16.2350    4.2410   24.5500 c3        1 ML1     -0.006190
      9 C14        17.1550    3.6750   25.6650 c3        1 ML1     -0.085426
     10 C15        16.3380    5.7900   24.4850 c3        1 ML1     -0.088083
     11 C17        16.8960    4.3430   27.0310 c3        1 ML1     -0.033157
     12 C20        16.0730    6.4390   25.8540 c3        1 ML1     -0.033069
     13 C23        16.9980    5.8740   26.9440 c3        1 ML1      0.265785
     14 O29        16.7090    6.4540   28.1960 oh        1 ML1     -0.661262
     15 C32        13.0270    2.7320   20.2630 ca        1 ML1      0.122331
     16 C33        14.5050    3.7240   18.6490 ca        1 ML1     -0.005353
     17 C34        13.4790    3.7950   17.7140 ca        1 ML1     -0.126536
     18 C35        12.2120    3.3360   18.0670 ca        1 ML1     -0.212948
     19 N38        18.0380    4.7920   18.5860 Y6        1 ML1     -0.063246
     20 C39        16.9170    4.7650   17.8900 cd        1 ML1     -0.153942
     21 C40        11.9890    2.8160   19.3440 ca        1 ML1     -0.146480
     22 F43        12.7850    2.2150   21.4850 f         1 ML1     -0.133245
     23 O1         17.7870    3.7640   22.7650 oh        1 ML1     -0.386488
     24 H9         14.4650    3.8610   22.4940 hc        1 ML1      0.045815
     25 H16        15.2110    3.9990   24.8410 hc        1 ML1      0.013146
     26 H18        17.0190    2.5950   25.7510 hc        1 ML1      0.061239
     27 H19        18.2020    3.8210   25.3910 hc        1 ML1      0.061239
     28 H21        15.6190    6.1890   23.7710 hc        1 ML1      0.040775
     29 H22        17.3220    6.0830   24.1140 hc        1 ML1      0.040775
     30 H24        17.6050    3.9580   27.7650 hc        1 ML1     -0.001015
     31 H25        15.9030    4.0630   27.3860 hc        1 ML1     -0.001015
     32 H26        16.1770    7.5220   25.7880 hc        1 ML1      0.023192
     33 H27        15.0360    6.2430   26.1140 hc        1 ML1      0.023192
     34 H28        18.0250    6.1400   26.6950 h1        1 ML1     -0.011284
     35 H31        17.3330    6.0940   28.8340 ho        1 ML1      0.387383
     36 H37        18.4510    4.0950   20.5520 h5        1 ML1      0.151160
     37 H44        16.8530    5.1770   16.8910 h4        1 ML1      0.141817
     38 HH4        13.6600    4.2220   16.7370 ha        1 ML1      0.128258
     39 HH0        11.0200    2.4720   19.6560 ha        1 ML1      0.112303
     40 HH5        11.4040    3.3960   17.3580 ha        1 ML1      0.137148
     41 HH         15.5670    5.0550   21.8860 hc        1 ML1      0.045815
     42 H1         15.8630    2.1880   20.9270 h1        1 ML1      0.128851
     43 H2         16.3650    2.4710   23.3290 h1        1 ML1      0.062073
     44 H3         18.3660    3.1010   23.1650 ho        1 ML1      0.360956
@<TRIPOS>BOND
     1    1    2 1
     2    1    3 1
     3    1    4 1
     4    1   42 1
     5    2   15 1
     6    2   16 1
     7    3    5 1
     8    3    6 1
     9    4    7 1
    10    4   24 1
    11    4   41 1
    12    5   19 1
    13    5   36 1
    14    6   16 1
    15    6   20 1
    16    7    8 1
    17    7   23 1
    18    7   43 1
    19    8    9 1
    20    8   10 1
    21    8   25 1
    22    9   11 1
    23    9   26 1
    24    9   27 1
    25   10   12 1
    26   10   28 1
    27   10   29 1
    28   11   13 1
    29   11   30 1
    30   11   31 1
    31   12   13 1
    32   12   32 1
    33   12   33 1
    34   13   14 1
    35   13   34 1
    36   14   35 1
    37   15   21 1
    38   15   22 1
    39   16   17 1
    40   17   18 1
    41   17   38 1
    42   18   21 1
    43   18   40 1
    44   19   20 1
    45   20   37 1
    46   21   39 1
    47   23   44 1
@<TRIPOS>SUBSTRUCTURE
     1 ML1         1 TEMP              0 ****  ****    0 ROOT
