@<TRIPOS>MOLECULE
HM1
   72    76     1     0     0
SMALL
RESP Charge
 
 
@<TRIPOS>ATOM
      1 O2D        69.5040   48.7310   16.9060 o         1 HM1     -0.742171
      2 CGD        69.6240   49.5560   17.8460 c         1 HM1      0.643322
      3 O1D        70.4720   50.4610   17.8340 o         1 HM1     -0.730783
      4 CBD        68.6970   49.5170   19.0770 c3        1 HM1      0.044419
      5 CAD        67.1920   49.5780   18.9640 c3        1 HM1     -0.047463
      6 C3D        66.4650   50.8100   18.3730 cd        1 HM1     -0.071605
      7 C4D        65.9640   51.9540   19.0970 cd        1 HM1     -0.040432
      8 ND         65.3940   52.8890   18.2460 Y2        1 HM1     -0.016514
      9 C1D        65.5070   52.3470   17.0020 cc        1 HM1     -0.057045
     10 C2D        66.1790   51.0730   17.0670 cc        1 HM1      0.043290
     11 CMD        66.4890   50.1710   15.8750 c3        1 HM1     -0.028448
     12 CHD        65.0230   52.9600   15.8050 ce        1 HM1     -0.091535
     13 C4C        64.3790   54.2100   15.6800 cd        1 HM1     -0.028616
     14 C3C        63.8700   54.7760   14.4210 cd        1 HM1     -0.003124
     15 CAC        63.8900   54.1890   13.1350 cf        1 HM1     -0.055604
     16 CBC        63.0110   53.1920   12.7440 c2        1 HM1     -0.424116
     17 C2C        63.3490   56.0020   14.7650 cc        1 HM1      0.011165
     18 CMC        62.6850   57.0230   13.8140 c3        1 HM1      0.013576
     19 C1C        63.5710   56.1630   16.2160 cc        1 HM1     -0.072160
     20 NC         64.1770   55.0670   16.7310 Y3        1 HM1     -0.138377
     21 CHC        63.2120   57.3050   16.9760 ce        1 HM1     -0.119944
     22 C4B        63.3730   57.4760   18.3540 cd        1 HM1     -0.085148
     23 C3B        63.0330   58.6860   19.1190 cd        1 HM1     -0.021505
     24 CAB        62.4940   59.9480   18.6530 cf        1 HM1     -0.072141
     25 CBB        61.4300   60.6730   19.2420 c2        1 HM1     -0.474091
     26 C2B        63.3560   58.3630   20.4410 cc        1 HM1      0.006836
     27 CMB        63.2100   59.2540   21.7130 c3        1 HM1     -0.020718
     28 C1B        63.8500   57.0060   20.4550 cc        1 HM1     -0.028159
     29 NB         63.8830   56.4690   19.1990 Y4        1 HM1     -0.011640
     30 CHB        64.2420   56.3450   21.6250 ce        1 HM1     -0.135324
     31 C4A        64.7570   55.0720   21.7510 cd        1 HM1     -0.072256
     32 C3A        65.0800   54.4250   22.9890 cd        1 HM1      0.023560
     33 CMA        64.8490   55.0070   24.3750 c3        1 HM1     -0.075719
     34 C2A        65.5810   53.2060   22.6690 cc        1 HM1     -0.041773
     35 CAA        66.0620   52.1090   23.5650 c3        1 HM1     -0.071427
     36 CBA        65.2250   50.8610   23.8570 c3        1 HM1      0.070402
     37 CGA        63.7190   50.9680   24.1440 c         1 HM1      0.593360
     38 O2A        63.3270   51.6070   25.1830 o         1 HM1     -0.718142
     39 O1A        62.9130   50.4330   23.2890 o         1 HM1     -0.721843
     40 C1A        65.5740   53.1530   21.2450 cc        1 HM1     -0.034947
     41 NA         65.0640   54.2820   20.7120 Y5        1 HM1     -0.029167
     42 CHA        66.0220   52.0780   20.4930 ce        1 HM1     -0.186417
     43 HMA1       64.6880   54.2880   25.0060 hc        1 HM1      0.029814
     44 HMA2       64.0790   55.5960   24.3540 hc        1 HM1      0.029814
     45 HMA3       65.6320   55.5090   24.6500 hc        1 HM1      0.029814
     46 HMB1       63.3290   60.1860   21.4710 hc        1 HM1      0.013242
     47 HMB2       63.8830   59.0010   22.3640 hc        1 HM1      0.013242
     48 HMB3       62.3270   59.1300   22.0960 hc        1 HM1      0.013242
     49 HMC1       62.0330   57.5460   14.3050 hc        1 HM1     -0.001584
     50 HMC2       62.2420   56.5520   13.0910 hc        1 HM1     -0.001584
     51 HMC3       63.3630   57.6130   13.4480 hc        1 HM1     -0.001584
     52 HMD1       67.2960   49.6640   16.0540 hc        1 HM1      0.017554
     53 HMD2       66.6190   50.7150   15.0820 hc        1 HM1      0.017554
     54 HMD3       65.7490   49.5600   15.7300 hc        1 HM1      0.017554
     55 HBB1       61.1410   61.5130   18.8520 ha        1 HM1      0.175052
     56 HBB2       60.9900   60.3300   20.0350 ha        1 HM1      0.175052
     57 HBC1       63.0650   52.8210   11.8490 ha        1 HM1      0.158075
     58 HBC2       62.3410   52.8650   13.3650 ha        1 HM1      0.158075
     59 HBA1       65.6290   50.4200   24.6210 hc        1 HM1     -0.046406
     60 HBA2       65.3280   50.2660   23.0980 hc        1 HM1     -0.046406
     61 HAA1       66.2600   52.5170   24.4220 hc        1 HM1      0.023229
     62 HAA2       66.9040   51.7990   23.1970 hc        1 HM1      0.023229
     63 HBD1       68.9060   48.7000   19.5560 hc        1 HM1     -0.045283
     64 HBD2       68.9620   50.2550   19.6470 hc        1 HM1     -0.045283
     65 HAD1       66.9200   48.8120   18.4350 hc        1 HM1      0.021593
     66 HAD2       66.8380   49.4460   19.8580 hc        1 HM1      0.021593
     67 HHA        66.3990   51.3680   20.9610 ha        1 HM1      0.213692
     68 HHB        64.1430   56.8240   22.4160 ha        1 HM1      0.127149
     69 HHC        62.8300   58.0130   16.5100 ha        1 HM1      0.115807
     70 HHD        65.1470   52.4800   15.0180 ha        1 HM1      0.101460
     71 HAB        62.9010   60.3330   17.8610 ha        1 HM1      0.117759
     72 HAC        64.5510   54.4990   12.4960 ha        1 HM1      0.105809
@<TRIPOS>BOND
     1    1    2 1
     2    2    3 1
     3    2    4 1
     4    4    5 1
     5    4   63 1
     6    4   64 1
     7    5    6 1
     8    5   65 1
     9    5   66 1
    10    6    7 1
    11    6   10 1
    12    7    8 1
    13    7   42 1
    14    8    9 1
    15    9   10 1
    16    9   12 1
    17   10   11 1
    18   11   52 1
    19   11   53 1
    20   11   54 1
    21   12   13 1
    22   12   70 1
    23   13   14 1
    24   13   20 1
    25   14   15 1
    26   14   17 1
    27   15   16 1
    28   15   72 1
    29   16   57 1
    30   16   58 1
    31   17   18 1
    32   17   19 1
    33   18   49 1
    34   18   50 1
    35   18   51 1
    36   19   20 1
    37   19   21 1
    38   21   22 1
    39   21   69 1
    40   22   23 1
    41   22   29 1
    42   23   24 1
    43   23   26 1
    44   24   25 1
    45   24   71 1
    46   25   55 1
    47   25   56 1
    48   26   27 1
    49   26   28 1
    50   27   46 1
    51   27   47 1
    52   27   48 1
    53   28   29 1
    54   28   30 1
    55   30   31 1
    56   30   68 1
    57   31   32 1
    58   31   41 1
    59   32   33 1
    60   32   34 1
    61   33   43 1
    62   33   44 1
    63   33   45 1
    64   34   35 1
    65   34   40 1
    66   35   36 1
    67   35   61 1
    68   35   62 1
    69   36   37 1
    70   36   59 1
    71   36   60 1
    72   37   38 1
    73   37   39 1
    74   40   41 1
    75   40   42 1
    76   42   67 1
@<TRIPOS>SUBSTRUCTURE
     1 HM1         1 TEMP              0 ****  ****    0 ROOT
