@<TRIPOS>MOLECULE
ML1
   20    21     1     0     0
SMALL
RESP Charge
 
 
@<TRIPOS>ATOM
      1 C1         59.4120   53.3210   18.3760 ca        1 ML1      0.029341
      2 C2         58.4000   53.0050   19.3030 ca        1 ML1      0.280966
      3 C3         57.0830   52.8390   18.8800 ca        1 ML1     -0.219577
      4 C4         56.7400   53.0490   17.5470 ca        1 ML1     -0.148219
      5 C5         57.7220   53.3920   16.6240 ca        1 ML1     -0.134117
      6 C6         59.0490   53.5170   17.0340 ca        1 ML1     -0.175021
      7 O7         58.6620   52.8780   20.6410 oh        1 ML1     -0.523284
      8 N12        61.4000   52.8660   19.9000 na        1 ML1     -0.265823
      9 C13        60.8540   53.4370   18.7780 cc        1 ML1     -0.019563
     10 C14        61.9560   54.0830   18.2100 cd        1 ML1     -0.055158
     11 N15        63.0890   53.8710   18.8580 Y6        1 ML1      0.003156
     12 C16        62.7400   53.1160   19.8710 cc        1 ML1      0.008347
     13 H8         56.3080   52.5400   19.6050 ha        1 ML1      0.116708
     14 H9         55.6910   52.9430   17.2240 ha        1 ML1      0.109001
     15 H10        57.4520   53.5650   15.5690 ha        1 ML1      0.109237
     16 H11        59.8250   53.7740   16.2930 ha        1 ML1      0.138562
     17 H17        61.8870   54.7110   17.3060 h4        1 ML1      0.120133
     18 H18        60.9170   52.3080   20.5910 hn        1 ML1      0.338305
     19 H19        63.4520   52.7260   20.6180 h5        1 ML1      0.170220
     20 H20        58.5640   51.9910   21.0170 ho        1 ML1      0.391592
@<TRIPOS>BOND
     1    1    2 1
     2    1    6 1
     3    1    9 1
     4    2    3 1
     5    2    7 1
     6    3    4 1
     7    3   13 1
     8    4    5 1
     9    4   14 1
    10    5    6 1
    11    5   15 1
    12    6   16 1
    13    7   20 1
    14    8    9 1
    15    8   12 1
    16    8   18 1
    17    9   10 1
    18   10   11 1
    19   10   17 1
    20   11   12 1
    21   12   19 1
@<TRIPOS>SUBSTRUCTURE
     1 ML1         1 TEMP              0 ****  ****    0 ROOT
