@<TRIPOS>MOLECULE
ML1
   35    36     1     0     0
SMALL
RESP Charge
 
 
@<TRIPOS>ATOM
      1 C1         57.9130   53.6670   17.2310 ca        1 ML1     -0.140052
      2 C2         58.8900   53.1800   18.0980 ca        1 ML1      0.016557
      3 C3         58.6280   52.0850   18.9190 ca        1 ML1     -0.051383
      4 C4         57.3930   51.4600   18.8770 ca        1 ML1     -0.171783
      5 C5         56.4240   51.9560   18.0240 ca        1 ML1     -0.096798
      6 C6         56.6650   53.0620   17.2240 ca        1 ML1     -0.159600
      7 C12        60.2280   53.8680   18.1990 c3        1 ML1     -0.010846
      8 C15        60.5980   54.1560   19.6680 c3        1 ML1     -0.016930
      9 S18        62.0690   53.2190   20.2000 s6        1 ML1      0.221990
     10 O19        61.8760   51.8100   20.4240 o         1 ML1     -0.317972
     11 O20        63.0760   53.6340   19.2240 Y6        1 ML1     -0.041769
     12 N21        62.2760   53.8890   21.7990 n3        1 ML1     -0.157493
     13 N23        61.5640   53.2680   22.8260 nh        1 ML1     -0.095986
     14 C25        58.2760   54.9050   24.8140 ca        1 ML1     -0.170163
     15 C26        58.5270   53.5380   24.8790 ca        1 ML1     -0.143165
     16 C27        59.6230   53.0100   24.2030 ca        1 ML1     -0.095320
     17 C28        60.4610   53.8440   23.4610 ca        1 ML1      0.031147
     18 C29        60.1910   55.2160   23.3900 ca        1 ML1     -0.031257
     19 C30        59.0960   55.7480   24.0670 ca        1 ML1     -0.183866
     20 H7         58.1070   54.5170   16.5910 ha        1 ML1      0.111268
     21 H8         59.3760   51.7390   19.6100 ha        1 ML1      0.123370
     22 H9         57.1800   50.6100   19.5050 ha        1 ML1      0.123026
     23 H10        55.4760   51.4650   17.9680 ha        1 ML1      0.090556
     24 H11        55.8900   53.4100   16.5600 ha        1 ML1      0.106322
     25 H13        60.9740   53.2530   17.7030 hc        1 ML1      0.059150
     26 H14        60.2080   54.8010   17.6310 hc        1 ML1      0.059150
     27 H16        61.0760   55.1260   19.7670 h1        1 ML1      0.060371
     28 H17        59.8030   54.0530   20.4080 h1        1 ML1      0.060371
     29 H22        63.2670   53.9590   22.0490 hn        1 ML1      0.243549
     30 H24        61.6970   52.2560   22.8240 hn        1 ML1      0.261754
     31 H31        57.4350   55.3130   25.3520 ha        1 ML1      0.090394
     32 H32        57.8800   52.8890   25.4530 ha        1 ML1      0.106702
     33 H33        59.8210   51.9480   24.2590 ha        1 ML1      0.112878
     34 H34        60.8340   55.8720   22.8240 ha        1 ML1      0.043541
     35 H35        58.8890   56.8070   24.0240 ha        1 ML1      0.115809
@<TRIPOS>BOND
     1    1    2 1
     2    1    6 1
     3    1   20 1
     4    2    3 1
     5    2    7 1
     6    3    4 1
     7    3   21 1
     8    4    5 1
     9    4   22 1
    10    5    6 1
    11    5   23 1
    12    6   24 1
    13    7    8 1
    14    7   25 1
    15    7   26 1
    16    8    9 1
    17    8   27 1
    18    8   28 1
    19    9   10 1
    20    9   11 1
    21    9   12 1
    22   12   13 1
    23   12   29 1
    24   13   17 1
    25   13   30 1
    26   14   15 1
    27   14   19 1
    28   14   31 1
    29   15   16 1
    30   15   32 1
    31   16   17 1
    32   16   33 1
    33   17   18 1
    34   18   19 1
    35   18   34 1
    36   19   35 1
@<TRIPOS>SUBSTRUCTURE
     1 ML1         1 TEMP              0 ****  ****    0 ROOT
