@<TRIPOS>MOLECULE
HM1
   72    76     1     0     0
SMALL
RESP Charge
 
 
@<TRIPOS>ATOM
      1 CHA       -24.5360   30.2930   32.7590 ce        1 HM1     -0.028399
      2 CHB       -26.3690   32.8100   36.4120 ce        1 HM1     -0.126441
      3 CHC       -27.6230   36.3970   33.5270 ce        1 HM1     -0.159483
      4 CHD       -25.3480   34.1450   30.0240 ce        1 HM1     -0.134371
      5 C1A       -25.0210   30.6370   33.9970 cc        1 HM1     -0.045322
      6 C2A       -24.9280   29.8080   35.1420 cc        1 HM1     -0.056268
      7 C3A       -25.4240   30.5330   36.1770 cd        1 HM1      0.060763
      8 C4A       -25.8520   31.7960   35.6580 cd        1 HM1     -0.049606
      9 CMA       -25.6230   30.0600   37.5740 c3        1 HM1     -0.220513
     10 CAA       -24.3520   28.4180   35.1990 c3        1 HM1     -0.037465
     11 CBA       -25.2520   27.3350   34.5230 c3        1 HM1      0.065380
     12 CGA       -26.3670   26.8250   35.4210 c         1 HM1      0.586073
     13 O1A       -27.4950   27.3230   35.4370 o         1 HM1     -0.669396
     14 O2A       -26.0630   25.7910   36.2260 o         1 HM1     -0.783199
     15 C1B       -26.8230   34.0540   35.9290 cc        1 HM1     -0.065353
     16 C2B       -27.4330   35.0730   36.7920 cc        1 HM1      0.076344
     17 C3B       -27.8820   36.0590   35.9790 cd        1 HM1     -0.058429
     18 C4B       -27.4290   35.6200   34.6280 cd        1 HM1     -0.072037
     19 CMB       -27.5460   34.9290   38.2940 c3        1 HM1     -0.034747
     20 CAB       -28.5770   37.3570   36.2460 cf        1 HM1     -0.094909
     21 CBB       -29.3800   37.6060   37.3180 c2        1 HM1     -0.418674
     22 C1C       -27.1300   36.0210   32.3080 cc        1 HM1     -0.076241
     23 C2C       -27.3320   36.7970   31.1480 cc        1 HM1      0.017255
     24 C3C       -26.6790   36.1870   30.1620 cd        1 HM1     -0.014760
     25 C4C       -26.1090   35.0000   30.7130 cd        1 HM1     -0.063643
     26 CMC       -28.1160   38.0910   31.0690 c3        1 HM1      0.040111
     27 CAC       -26.6520   36.6300   28.7630 cf        1 HM1     -0.066807
     28 CBC       -27.6030   36.1490   27.8870 c2        1 HM1     -0.417922
     29 C1D       -24.8860   32.9750   30.5130 cc        1 HM1     -0.043705
     30 C2D       -24.1610   32.0140   29.6650 cc        1 HM1      0.050254
     31 C3D       -24.0310   30.8730   30.4010 cd        1 HM1     -0.092731
     32 C4D       -24.6110   31.1860   31.7010 cd        1 HM1     -0.009766
     33 CMD       -23.7550   32.2570   28.2280 c3        1 HM1     -0.113738
     34 CAD       -23.3450   29.5800   30.0270 c3        1 HM1     -0.053710
     35 CBD       -21.8750   29.5450   30.5210 c3        1 HM1      0.065987
     36 CGD       -21.0250   30.3850   29.5760 c         1 HM1      0.527341
     37 O1D       -20.3530   31.3070   30.0550 o         1 HM1     -0.658684
     38 O2D       -21.0310   30.1130   28.1980 o         1 HM1     -0.747863
     39 NA        -25.6250   31.8850   34.2960 Y2        1 HM1     -0.057041
     40 NB        -26.8070   34.4120   34.6580 Y3        1 HM1     -0.026045
     41 NC        -26.4120   34.8810   32.0280 Y4        1 HM1     -0.110160
     42 ND        -25.1310   32.4510   31.7190 Y5        1 HM1      0.002934
     43 HMA1      -25.7000   29.0930   37.5810 hc        1 HM1      0.069635
     44 HMA2      -26.4330   30.4510   37.9360 hc        1 HM1      0.069635
     45 HMA3      -24.8650   30.3270   38.1170 hc        1 HM1      0.069635
     46 HMB1      -27.5180   35.8060   38.7060 hc        1 HM1      0.013782
     47 HMB2      -26.8080   34.3930   38.6240 hc        1 HM1      0.013782
     48 HMB3      -28.3850   34.4950   38.5150 hc        1 HM1      0.013782
     49 HMC1      -28.8210   38.0840   31.7350 hc        1 HM1     -0.012228
     50 HMC2      -28.5070   38.1790   30.1860 hc        1 HM1     -0.012228
     51 HMC3      -27.5220   38.8400   31.2350 hc        1 HM1     -0.012228
     52 HMD1      -24.3930   32.8550   27.8080 hc        1 HM1      0.043019
     53 HMD2      -23.7390   31.4140   27.7490 hc        1 HM1      0.043019
     54 HMD3      -22.8720   32.6590   28.2040 hc        1 HM1      0.043019
     55 HBB1      -29.7960   38.4760   37.4210 ha        1 HM1      0.148688
     56 HBB2      -29.5360   36.9130   37.9790 ha        1 HM1      0.148688
     57 HBC1      -27.5960   36.4340   26.9600 ha        1 HM1      0.154910
     58 HBC2      -28.2780   35.5260   28.1980 ha        1 HM1      0.154910
     59 HBA1      -24.6970   26.5870   34.2520 hc        1 HM1     -0.045195
     60 HBA2      -25.6410   27.7060   33.7160 hc        1 HM1     -0.045195
     61 HAA1      -24.2080   28.1740   36.1270 hc        1 HM1      0.024247
     62 HAA2      -23.4830   28.4190   34.7680 hc        1 HM1      0.024247
     63 HBD1      -21.5490   28.6320   30.5450 hc        1 HM1     -0.036919
     64 HBD2      -21.8150   29.8910   31.4250 hc        1 HM1     -0.036919
     65 HAD1      -23.3650   29.4700   29.0630 hc        1 HM1      0.029747
     66 HAD2      -23.8320   28.8330   30.4080 hc        1 HM1      0.029747
     67 HHA       -24.1540   29.4550   32.6290 ha        1 HM1      0.137323
     68 HHB       -26.4270   32.6670   37.3290 ha        1 HM1      0.133006
     69 HHC       -28.0970   37.1930   33.6050 ha        1 HM1      0.118104
     70 HHD       -25.1220   34.3710   29.1510 ha        1 HM1      0.130345
     71 HAB       -28.4460   38.0750   35.6080 ha        1 HM1      0.132175
     72 HAC       -25.9740   37.2530   28.4580 ha        1 HM1      0.106972
@<TRIPOS>BOND
     1    1    5 1
     2    1   32 1
     3    1   67 1
     4    2    8 1
     5    2   15 1
     6    2   68 1
     7    3   18 1
     8    3   22 1
     9    3   69 1
    10    4   25 1
    11    4   29 1
    12    4   70 1
    13    5    6 1
    14    5   39 1
    15    6    7 1
    16    6   10 1
    17    7    8 1
    18    7    9 1
    19    8   39 1
    20    9   43 1
    21    9   44 1
    22    9   45 1
    23   10   11 1
    24   10   61 1
    25   10   62 1
    26   11   12 1
    27   11   59 1
    28   11   60 1
    29   12   13 1
    30   12   14 1
    31   15   16 1
    32   15   40 1
    33   16   17 1
    34   16   19 1
    35   17   18 1
    36   17   20 1
    37   18   40 1
    38   19   46 1
    39   19   47 1
    40   19   48 1
    41   20   21 1
    42   20   71 1
    43   21   55 1
    44   21   56 1
    45   22   23 1
    46   22   41 1
    47   23   24 1
    48   23   26 1
    49   24   25 1
    50   24   27 1
    51   25   41 1
    52   26   49 1
    53   26   50 1
    54   26   51 1
    55   27   28 1
    56   27   72 1
    57   28   57 1
    58   28   58 1
    59   29   30 1
    60   29   42 1
    61   30   31 1
    62   30   33 1
    63   31   32 1
    64   31   34 1
    65   32   42 1
    66   33   52 1
    67   33   53 1
    68   33   54 1
    69   34   35 1
    70   34   65 1
    71   34   66 1
    72   35   36 1
    73   35   63 1
    74   35   64 1
    75   36   37 1
    76   36   38 1
@<TRIPOS>SUBSTRUCTURE
     1 HM1         1 TEMP              0 ****  ****    0 ROOT
