@<TRIPOS>MOLECULE
HD1
   17    17     1     0     0
SMALL
RESP Charge
 
 
@<TRIPOS>ATOM
      1 N         -20.3330   38.5460   34.0960 N         1 HD1     -0.415700
      2 H         -19.8200   38.4410   33.2320 H         1 HD1      0.222754
      3 CA        -21.3220   37.5330   34.4390 CX        1 HD1      0.018800
      4 HA        -22.3240   37.9610   34.4440 H1        1 HD1      0.081942
      5 CB        -21.2720   36.4270   33.3980 CT        1 HD1     -0.046094
      6 HB2       -21.4320   36.8430   32.4030 HC        1 HD1      0.053737
      7 HB3       -20.3090   35.9160   33.4270 HC        1 HD1      0.053737
      8 CG        -22.3110   35.3860   33.5950 CC        1 HD1     -0.073345
      9 ND1       -22.0280   34.2060   34.2540 NA        1 HD1     -0.082250
     10 HD1       -21.1530   33.9140   34.6650 H         1 HD1      0.268859
     11 CE1       -23.1480   33.5130   34.2440 CR        1 HD1     -0.027004
     12 HE1       -23.1360   32.5230   34.6990 H5        1 HD1      0.134588
     13 NE2       -24.1300   34.1900   33.6500 Y1        1 HD1     -0.055934
     14 CD2       -23.6040   35.3830   33.2180 CV        1 HD1     -0.065610
     15 HD2       -24.2340   36.0950   32.6840 H4        1 HD1      0.136268
     16 C         -21.1000   36.9580   35.8480 C         1 HD1      0.597300
     17 O         -22.0710   36.7660   36.5800 O         1 HD1     -0.567900
@<TRIPOS>BOND
     1    1    2 1
     2    1    3 1
     3    3    4 1
     4    3    5 1
     5    3   16 1
     6    5    6 1
     7    5    7 1
     8    5    8 1
     9    8    9 1
    10    8   14 1
    11    9   10 1
    12    9   11 1
    13   11   12 1
    14   11   13 1
    15   13   14 1
    16   14   15 1
    17   16   17 1
@<TRIPOS>SUBSTRUCTURE
     1 HD1         1 TEMP              0 ****  ****    0 ROOT
