@<TRIPOS>MOLECULE
ML1
   20    21     1     0     0
SMALL
RESP Charge
 
 
@<TRIPOS>ATOM
      1 N         -31.4250   32.7280   31.3280 nh        1 ML1     -0.415380
      2 C         -32.2570   30.4880   31.0090 ca        1 ML1     -0.083322
      3 CL        -35.8780   28.8540   31.0340 cl        1 ML1     -0.133177
      4 C2        -34.5840   30.0180   31.0330 ca        1 ML1     -0.002271
      5 C1        -33.2910   29.5780   30.9210 ca        1 ML1     -0.068026
      6 C3        -34.8740   31.3570   31.1670 ca        1 ML1     -0.097938
      7 C4        -33.8360   32.2670   31.2530 ca        1 ML1     -0.122211
      8 C5        -32.5180   31.8340   31.2000 ca        1 ML1      0.091998
      9 C6        -30.1590   32.4870   31.9040 cc        1 ML1      0.098957
     10 N3        -29.7960   31.4320   32.6470 na        1 ML1      0.082909
     11 N2        -28.5030   31.5570   33.0050 nc        1 ML1     -0.315849
     12 N1        -28.0620   32.6880   32.5050 Y6        1 ML1      0.170507
     13 C7        -29.0650   33.2840   31.8160 cd        1 ML1     -0.155245
     14 H5        -31.5710   33.6550   30.9440 hn        1 ML1      0.332393
     15 H1        -31.2410   30.1440   30.8450 ha        1 ML1      0.106857
     16 H2        -33.1010   28.5410   30.6540 ha        1 ML1      0.117328
     17 H3        -35.9090   31.6930   31.1700 ha        1 ML1      0.115262
     18 H4        -34.0740   33.3250   31.3450 ha        1 ML1      0.107127
     19 H         -30.3520   30.6500   32.9760 hn        1 ML1      0.282619
     20 H6        -28.9470   34.2280   31.2890 h4        1 ML1      0.136065
@<TRIPOS>BOND
     1    1    8 1
     2    1    9 1
     3    1   14 1
     4    2    5 1
     5    2    8 1
     6    2   15 1
     7    3    4 1
     8    4    5 1
     9    4    6 1
    10    5   16 1
    11    6    7 1
    12    6   17 1
    13    7    8 1
    14    7   18 1
    15    9   10 1
    16    9   13 1
    17   10   11 1
    18   10   19 1
    19   11   12 1
    20   12   13 1
    21   13   20 1
@<TRIPOS>SUBSTRUCTURE
     1 ML1         1 TEMP              0 ****  ****    0 ROOT
