@<TRIPOS>MOLECULE
HM1
   72    76     1     0     0
SMALL
RESP Charge
 
 
@<TRIPOS>ATOM
      1 CHA        17.0640   30.8510   32.8870 cf        1 HM1     -0.086481
      2 CHB        15.0040   33.6740   36.2020 cf        1 HM1     -0.184732
      3 CHC        13.5350   36.7140   32.7160 cf        1 HM1     -0.170022
      4 CHD        15.8490   34.0260   29.4550 cf        1 HM1     -0.100128
      5 C1A        16.5980   31.3770   34.0530 cd        1 HM1     -0.076221
      6 C2A        16.7550   30.7320   35.2910 cd        1 HM1     -0.106910
      7 C3A        16.1780   31.5210   36.2280 cc        1 HM1     -0.003036
      8 C4A        15.6690   32.6530   35.5660 cc        1 HM1     -0.096527
      9 CMA        16.1070   31.2580   37.7140 c3        1 HM1     -0.032310
     10 CAA        17.4520   29.4120   35.5190 c3        1 HM1     -0.059219
     11 CBA        16.3890   28.3410   35.7240 c3        1 HM1     -0.037383
     12 CGA        15.9270   27.8540   34.3860 c         1 HM1      0.521479
     13 O1A        15.0810   28.5100   33.7300 o         1 HM1     -0.646381
     14 O2A        16.4020   26.7830   33.9490 o         1 HM1     -0.664862
     15 C1B        14.4460   34.7540   35.5240 cd        1 HM1     -0.050576
     16 C2B        13.7620   35.8070   36.1930 cd        1 HM1      0.019940
     17 C3B        13.3330   36.6870   35.2450 cc        1 HM1     -0.037997
     18 C4B        13.7890   36.1100   33.9500 cc        1 HM1     -0.044750
     19 CMB        13.5490   35.9290   37.6830 c3        1 HM1      0.006268
     20 CAB        12.5580   37.9310   35.4980 ce        1 HM1     -0.099537
     21 CBB        12.7650   39.0900   34.8640 c2        1 HM1     -0.374063
     22 C1C        14.0460   36.2850   31.5000 cd        1 HM1     -0.102119
     23 C2C        13.8580   36.9010   30.2540 cd        1 HM1      0.036684
     24 C3C        14.5280   36.1220   29.3180 cc        1 HM1     -0.080288
     25 C4C        15.1120   35.0320   30.0140 cc        1 HM1     -0.076927
     26 CMC        13.0840   38.1770   30.0010 c3        1 HM1      0.050532
     27 CAC        14.6290   36.3630   27.8680 ce        1 HM1     -0.045701
     28 CBC        13.8490   35.6640   27.0470 c2        1 HM1     -0.393603
     29 C1D        16.3680   32.9610   30.1900 cd        1 HM1     -0.086651
     30 C2D        17.1760   31.9380   29.5210 cd        1 HM1      0.021150
     31 C3D        17.5110   31.0580   30.4650 cc        1 HM1     -0.048946
     32 C4D        16.9130   31.5460   31.7110 cc        1 HM1     -0.058859
     33 CMD        17.5500   31.8740   28.0640 c3        1 HM1     -0.043003
     34 CAD        18.3440   29.8210   30.2730 c3        1 HM1     -0.080082
     35 CBD        19.7470   30.0880   30.8250 c3        1 HM1     -0.033048
     36 CGD        20.7370   30.5090   29.7630 c         1 HM1      0.669987
     37 O1D        21.6930   31.2330   30.1000 o         1 HM1     -0.747895
     38 O2D        20.6400   30.1460   28.5670 o         1 HM1     -0.725703
     39 NA         15.8840   32.5400   34.2200 Y2        1 HM1     -0.055902
     40 NB         14.4310   34.9610   34.2150 Y3        1 HM1     -0.054432
     41 NC         14.7530   35.1470   31.3120 Y4        1 HM1      0.002848
     42 ND         16.2230   32.6750   31.5000 Y5        1 HM1      0.035425
     43 HMA1       16.1120   32.1020   38.1930 hc        1 HM1      0.009420
     44 HMA2       16.8730   30.7280   37.9860 hc        1 HM1      0.009420
     45 HMA3       15.2910   30.7750   37.9190 hc        1 HM1      0.009420
     46 HMB1       13.5060   36.8660   37.9280 hc        1 HM1      0.006834
     47 HMB2       14.2860   35.5070   38.1510 hc        1 HM1      0.006834
     48 HMB3       12.7180   35.4920   37.9280 hc        1 HM1      0.006834
     49 HMC1       12.3740   38.2610   30.6570 hc        1 HM1     -0.011263
     50 HMC2       12.6990   38.1510   29.1110 hc        1 HM1     -0.011263
     51 HMC3       13.6810   38.9380   30.0730 hc        1 HM1     -0.011263
     52 HMD1       18.4080   31.4310   27.9690 hc        1 HM1      0.020390
     53 HMD2       17.6090   32.7730   27.7050 hc        1 HM1      0.020390
     54 HMD3       16.8740   31.3760   27.5780 hc        1 HM1      0.020390
     55 HBB1       12.2210   39.8640   35.0790 ha        1 HM1      0.139177
     56 HBB2       13.4590   39.1570   34.1890 ha        1 HM1      0.139177
     57 HBC1       13.9010   35.8080   26.0890 ha        1 HM1      0.148246
     58 HBC2       13.2290   35.0100   27.4060 ha        1 HM1      0.148246
     59 HBA1       15.6420   28.7020   36.2260 hc        1 HM1     -0.003695
     60 HBA2       16.7500   27.6050   36.2430 hc        1 HM1     -0.003695
     61 HAA1       18.0320   29.4650   36.2950 hc        1 HM1      0.053341
     62 HAA2       18.0130   29.1900   34.7600 hc        1 HM1      0.053341
     63 HBD1       20.0730   29.2860   31.2630 hc        1 HM1     -0.022540
     64 HBD2       19.6950   30.7800   31.5020 hc        1 HM1     -0.022540
     65 HAD1       18.3910   29.5890   29.3320 hc        1 HM1      0.050337
     66 HAD2       17.9390   29.0680   30.7310 hc        1 HM1      0.050337
     67 HHA        17.4840   30.0210   32.8860 ha        1 HM1      0.239004
     68 HHB        14.9230   33.6420   37.1280 ha        1 HM1      0.193250
     69 HHC        12.9810   37.4610   32.7090 ha        1 HM1      0.121351
     70 HHD        16.0120   34.0530   28.5400 ha        1 HM1      0.112759
     71 HAB        11.8560   37.8990   36.1670 ha        1 HM1      0.136006
     72 HAC        15.2520   37.0190   27.5180 ha        1 HM1      0.104321
@<TRIPOS>BOND
     1    1    5 1
     2    1   32 1
     3    1   67 1
     4    2    8 1
     5    2   15 1
     6    2   68 1
     7    3   18 1
     8    3   22 1
     9    3   69 1
    10    4   25 1
    11    4   29 1
    12    4   70 1
    13    5    6 1
    14    5   39 1
    15    6    7 1
    16    6   10 1
    17    7    8 1
    18    7    9 1
    19    8   39 1
    20    9   43 1
    21    9   44 1
    22    9   45 1
    23   10   11 1
    24   10   61 1
    25   10   62 1
    26   11   12 1
    27   11   59 1
    28   11   60 1
    29   12   13 1
    30   12   14 1
    31   15   16 1
    32   15   40 1
    33   16   17 1
    34   16   19 1
    35   17   18 1
    36   17   20 1
    37   18   40 1
    38   19   46 1
    39   19   47 1
    40   19   48 1
    41   20   21 1
    42   20   71 1
    43   21   55 1
    44   21   56 1
    45   22   23 1
    46   22   41 1
    47   23   24 1
    48   23   26 1
    49   24   25 1
    50   24   27 1
    51   25   41 1
    52   26   49 1
    53   26   50 1
    54   26   51 1
    55   27   28 1
    56   27   72 1
    57   28   57 1
    58   28   58 1
    59   29   30 1
    60   29   42 1
    61   30   31 1
    62   30   33 1
    63   31   32 1
    64   31   34 1
    65   32   42 1
    66   33   52 1
    67   33   53 1
    68   33   54 1
    69   34   35 1
    70   34   65 1
    71   34   66 1
    72   35   36 1
    73   35   63 1
    74   35   64 1
    75   36   37 1
    76   36   38 1
@<TRIPOS>SUBSTRUCTURE
     1 HM1         1 TEMP              0 ****  ****    0 ROOT
