@<TRIPOS>MOLECULE
HD1
   17    17     1     0     0
SMALL
RESP Charge
 
 
@<TRIPOS>ATOM
      1 N         -20.6120    8.4880   33.3780 N         1 HD1     -0.415700
      2 H         -21.0890    8.5830   32.5050 H         1 HD1      0.223797
      3 CA        -19.6530    9.5330   33.7860 CX        1 HD1      0.018800
      4 HA        -18.6570    9.0890   33.7860 H1        1 HD1      0.083609
      5 CB        -19.6610   10.6420   32.7830 CT        1 HD1     -0.010171
      6 HB2       -19.5100   10.2170   31.7900 HC        1 HD1      0.049585
      7 HB3       -20.6300   11.1370   32.7890 HC        1 HD1      0.049585
      8 CG        -18.6010   11.6700   32.9890 CC        1 HD1     -0.078199
      9 ND1       -18.8610   12.9050   33.5370 NA        1 HD1     -0.124909
     10 HD1       -19.7740   13.2220   33.8620 H         1 HD1      0.266436
     11 CE1       -17.7500   13.6170   33.5780 CR        1 HD1      0.013191
     12 HE1       -17.6580   14.6230   33.9620 H5        1 HD1      0.148858
     13 NE2       -16.7800   12.9030   33.0420 Y1        1 HD1     -0.017664
     14 CD2       -17.2890   11.6850   32.6490 CV        1 HD1     -0.108822
     15 HD2       -16.7070   10.8630   32.3010 H4        1 HD1      0.150893
     16 C         -19.9320   10.0650   35.2030 C         1 HD1      0.597300
     17 O         -19.0090   10.2280   35.9820 O         1 HD1     -0.567900
@<TRIPOS>BOND
     1    1    2 1
     2    1    3 1
     3    3    4 1
     4    3    5 1
     5    3   16 1
     6    5    6 1
     7    5    7 1
     8    5    8 1
     9    8    9 1
    10    8   14 1
    11    9   10 1
    12    9   11 1
    13   11   12 1
    14   11   13 1
    15   13   14 1
    16   14   15 1
    17   16   17 1
@<TRIPOS>SUBSTRUCTURE
     1 HD1         1 TEMP              0 ****  ****    0 ROOT
