@<TRIPOS>MOLECULE
HM1
   72    76     1     0     0
SMALL
RESP Charge
 
 
@<TRIPOS>ATOM
      1 CHA       -16.9120   16.8920   32.4390 ce        1 HM1     -0.080422
      2 CHB       -14.5390   14.6090   35.9810 ce        1 HM1     -0.098417
      3 CHC       -13.4750   11.1050   32.8560 ce        1 HM1     -0.159638
      4 CHD       -15.7500   13.4080   29.3350 ce        1 HM1     -0.144695
      5 C1A       -16.3570   16.5810   33.6460 cc        1 HM1     -0.042291
      6 C2A       -16.4930   17.3650   34.8280 cc        1 HM1     -0.029108
      7 C3A       -15.8220   16.7200   35.8050 cd        1 HM1     -0.018331
      8 C4A       -15.2640   15.5360   35.2460 cd        1 HM1     -0.064640
      9 CMA       -15.6930   17.1840   37.2400 c3        1 HM1     -0.109453
     10 CAA       -17.2380   18.6470   35.0720 c3        1 HM1     -0.071866
     11 CBA       -17.1220   19.6310   33.9350 c3        1 HM1     -0.022667
     12 CGA       -15.8250   20.3880   34.0630 c         1 HM1      0.653325
     13 O1A       -15.1930   20.6600   33.0330 o         1 HM1     -0.723657
     14 O2A       -15.3620   20.7730   35.1580 o         1 HM1     -0.728027
     15 C1B       -14.0970   13.4120   35.4010 cc        1 HM1     -0.087812
     16 C2B       -13.4100   12.4250   36.1480 cc        1 HM1      0.055468
     17 C3B       -13.0920   11.4270   35.2700 cd        1 HM1     -0.066215
     18 C4B       -13.6260   11.8570   33.9790 cd        1 HM1     -0.035609
     19 CMB       -13.0980   12.5250   37.6190 c3        1 HM1     -0.056871
     20 CAB       -12.3570   10.1660   35.4950 cf        1 HM1     -0.083827
     21 CBB       -11.4200   10.1110   36.4510 c2        1 HM1     -0.437650
     22 C1C       -13.9430   11.4420   31.6250 cc        1 HM1     -0.083309
     23 C2C       -13.6970   10.7150   30.4650 cc        1 HM1      0.029016
     24 C3C       -14.3550   11.3520   29.4390 cd        1 HM1     -0.041468
     25 C4C       -14.9780   12.5040   30.0100 cd        1 HM1     -0.067923
     26 CMC       -12.8960    9.4560   30.3850 c3        1 HM1     -0.004011
     27 CAC       -14.4050   10.9310   28.0210 cf        1 HM1     -0.111410
     28 CBC       -13.9990   11.7620   27.0450 c2        1 HM1     -0.294263
     29 C1D       -16.2830   14.5060   29.9730 cc        1 HM1     -0.000209
     30 C2D       -17.1220   15.4690   29.2170 cc        1 HM1      0.026206
     31 C3D       -17.4230   16.4500   30.0810 cd        1 HM1     -0.081823
     32 C4D       -16.7820   16.0680   31.3570 cd        1 HM1     -0.046022
     33 CMD       -17.5700   15.4360   27.7870 c3        1 HM1     -0.214524
     34 CAD       -18.2890   17.6450   29.7810 c3        1 HM1     -0.041749
     35 CBD       -19.6930   17.2840   30.2960 c3        1 HM1      0.027593
     36 CGD       -20.5720   16.5700   29.2710 c         1 HM1      0.659240
     37 O1D       -21.4160   15.7210   29.6580 o         1 HM1     -0.748920
     38 O2D       -20.5140   16.8250   28.0290 o         1 HM1     -0.739875
     39 NA        -15.5580   15.4950   33.9030 Y2        1 HM1     -0.154988
     40 NB        -14.1620   13.0330   34.1210 Y3        1 HM1      0.004311
     41 NC        -14.6360   12.5390   31.3260 Y4        1 HM1     -0.019796
     42 ND        -16.0870   14.9220   31.2360 Y5        1 HM1     -0.001776
     43 HMA1      -15.6090   16.4130   37.8230 hc        1 HM1      0.037755
     44 HMA2      -16.4810   17.6930   37.4880 hc        1 HM1      0.037755
     45 HMA3      -14.9060   17.7440   37.3300 hc        1 HM1      0.037755
     46 HMB1      -13.0750   11.6360   38.0060 hc        1 HM1      0.020695
     47 HMB2      -13.7830   13.0520   38.0600 hc        1 HM1      0.020695
     48 HMB3      -12.2350   12.9520   37.7390 hc        1 HM1      0.020695
     49 HMC1      -12.2140    9.4620   31.0740 hc        1 HM1     -0.001991
     50 HMC2      -12.4740    9.3960   29.5140 hc        1 HM1     -0.001991
     51 HMC3      -13.4800    8.6920   30.5150 hc        1 HM1     -0.001991
     52 HMD1      -16.9060   14.9760   27.2500 hc        1 HM1      0.072648
     53 HMD2      -17.6770   16.3430   27.4600 hc        1 HM1      0.072648
     54 HMD3      -18.4170   14.9680   27.7240 hc        1 HM1      0.072648
     55 HBB1      -10.9330    9.2870   36.6050 ha        1 HM1      0.150740
     56 HBB2      -11.2290   10.8950   36.9890 ha        1 HM1      0.150740
     57 HBC1      -14.0360   11.4770   26.1190 ha        1 HM1      0.105782
     58 HBC2      -13.6690   12.6470   27.2670 ha        1 HM1      0.105782
     59 HBA1      -17.8710   20.2470   33.9490 hc        1 HM1     -0.008334
     60 HBA2      -17.1540   19.1650   33.0850 hc        1 HM1     -0.008334
     61 HAA1      -16.9020   19.0590   35.8830 hc        1 HM1      0.028910
     62 HAA2      -18.1750   18.4460   35.2230 hc        1 HM1      0.028910
     63 HBD1      -20.1410   18.0960   30.5810 hc        1 HM1     -0.041320
     64 HBD2      -19.6040   16.7190   31.0800 hc        1 HM1     -0.041320
     65 HAD1      -18.3050   17.8330   28.8300 hc        1 HM1      0.028328
     66 HAD2      -17.9500   18.4400   30.2220 hc        1 HM1      0.028328
     67 HHA       -17.3910   17.6840   32.3510 ha        1 HM1      0.175954
     68 HHB       -14.3430   14.7850   36.8730 ha        1 HM1      0.155316
     69 HHC       -13.0170   10.3000   32.9360 ha        1 HM1      0.131915
     70 HHD       -15.9180   13.2790   28.4290 ha        1 HM1      0.130554
     71 HAB       -12.5510    9.3840   34.9550 ha        1 HM1      0.126959
     72 HAC       -14.7340   10.0470   27.7940 ha        1 HM1      0.117540
@<TRIPOS>BOND
     1    1    5 1
     2    1   32 1
     3    1   67 1
     4    2    8 1
     5    2   15 1
     6    2   68 1
     7    3   18 1
     8    3   22 1
     9    3   69 1
    10    4   25 1
    11    4   29 1
    12    4   70 1
    13    5    6 1
    14    5   39 1
    15    6    7 1
    16    6   10 1
    17    7    8 1
    18    7    9 1
    19    8   39 1
    20    9   43 1
    21    9   44 1
    22    9   45 1
    23   10   11 1
    24   10   61 1
    25   10   62 1
    26   11   12 1
    27   11   59 1
    28   11   60 1
    29   12   13 1
    30   12   14 1
    31   15   16 1
    32   15   40 1
    33   16   17 1
    34   16   19 1
    35   17   18 1
    36   17   20 1
    37   18   40 1
    38   19   46 1
    39   19   47 1
    40   19   48 1
    41   20   21 1
    42   20   71 1
    43   21   55 1
    44   21   56 1
    45   22   23 1
    46   22   41 1
    47   23   24 1
    48   23   26 1
    49   24   25 1
    50   24   27 1
    51   25   41 1
    52   26   49 1
    53   26   50 1
    54   26   51 1
    55   27   28 1
    56   27   72 1
    57   28   57 1
    58   28   58 1
    59   29   30 1
    60   29   42 1
    61   30   31 1
    62   30   33 1
    63   31   32 1
    64   31   34 1
    65   32   42 1
    66   33   52 1
    67   33   53 1
    68   33   54 1
    69   34   35 1
    70   34   65 1
    71   34   66 1
    72   35   36 1
    73   35   63 1
    74   35   64 1
    75   36   37 1
    76   36   38 1
@<TRIPOS>SUBSTRUCTURE
     1 HM1         1 TEMP              0 ****  ****    0 ROOT
