@<TRIPOS>MOLECULE
ML1
   45    49     1     0     0
SMALL
RESP Charge
 
 
@<TRIPOS>ATOM
      1 C1         -9.6290   17.9610   30.2300 ca        1 ML1     -0.108392
      2 H1        -10.6760   18.1750   29.9560 ha        1 ML1      0.119694
      3 C5         -7.9770   16.4370   31.0470 ca        1 ML1     -0.156176
      4 H6         -7.6970   15.4410   31.4280 ha        1 ML1      0.118287
      5 C2         -8.6700   18.9430   30.0810 ca        1 ML1     -0.128936
      6 H2         -8.9430   19.9390   29.6950 ha        1 ML1      0.116522
      7 C7         -7.0130   17.4130   30.8960 ca        1 ML1     -0.116620
      8 H7         -5.9630   17.1970   31.1540 ha        1 ML1      0.105832
      9 C15       -12.7350   19.4320   38.8180 ca        1 ML1     -0.205507
     10 H12       -13.3650   20.2840   38.5110 ha        1 ML1      0.170641
     11 C17       -12.5100   19.1900   40.1620 ca        1 ML1     -0.282188
     12 H13       -12.9430   19.8210   40.9560 ha        1 ML1      0.163502
     13 C16       -11.3690   17.5230   38.1430 ca        1 ML1     -0.150710
     14 H14       -10.9330   16.8830   37.3580 ha        1 ML1      0.220573
     15 C3         -9.2900   16.7060   30.7220 ca        1 ML1     -0.013405
     16 C4         -7.3650   18.6570   30.4230 ca        1 ML1      0.106435
     17 C14       -12.1700   18.6060   37.8530 ca        1 ML1     -0.033718
     18 C18       -11.7060   18.1040   40.4390 ca        1 ML1      0.288546
     19 C19       -11.1540   17.3000   39.4740 ca        1 ML1      0.087906
     20 C10       -12.3650   14.7500   31.4910 cc        1 ML1      0.007370
     21 C11       -12.0710   16.5970   32.4800 cc        1 ML1     -0.051150
     22 C9        -10.3250   14.5550   30.1250 cd        1 ML1     -0.249612
     23 H8         -9.5050   14.2780   29.4410 h4        1 ML1      0.201702
     24 C6        -10.3480   15.6810   30.8430 cc        1 ML1     -0.016530
     25 C13       -11.8080   18.0950   35.5590 c         1 ML1      0.369867
     26 C20       -10.6230   16.4820   41.3620 c3        1 ML1      0.349000
     27 H15       -11.1280   15.5910   41.8030 h2        1 ML1      0.015866
     28 H16        -9.6580   16.4560   41.9200 h2        1 ML1      0.015866
     29 C8         -6.3180   19.6740   30.2920 c3        1 ML1     -0.216395
     30 H3         -6.6030   20.6820   29.9090 hc        1 ML1      0.060743
     31 H4         -5.4930   19.2660   29.6630 hc        1 ML1      0.060743
     32 H5         -5.8010   19.7910   31.2730 hc        1 ML1      0.060743
     33 C12       -12.2580   18.6050   34.2300 c3        1 ML1      0.039376
     34 H9        -12.3470   19.7160   34.2330 h1        1 ML1      0.089127
     35 H10       -13.3240   18.3430   34.0370 h1        1 ML1      0.089127
     36 N2        -13.4200   14.9140   32.2530 Y6        1 ML1      0.020341
     37 N3        -13.2320   16.1150   32.8980 nd        1 ML1     -0.053415
     38 N1        -11.5000   15.7560   31.5870 na        1 ML1      0.312431
     39 N4        -12.4080   18.8650   36.5180 n         1 ML1     -0.138817
     40 H11       -13.0290   19.6280   36.2470 hn        1 ML1      0.233444
     41 O1        -11.0580   17.1480   35.7590 o         1 ML1     -0.467556
     42 O2        -11.3570   17.6840   41.6920 os        1 ML1     -0.383155
     43 O3        -10.3890   16.2740   39.9610 os        1 ML1     -0.323649
     44 S1        -11.7280   13.5810   30.3900 ss        1 ML1      0.042866
     45 S2        -11.1980   18.0410   32.8950 ss        1 ML1     -0.140051
@<TRIPOS>BOND
     1    1    2 1
     2    1    5 1
     3    1   15 1
     4    3    4 1
     5    3    7 1
     6    3   15 1
     7    5    6 1
     8    5   16 1
     9    7    8 1
    10    7   16 1
    11    9   10 1
    12    9   11 1
    13    9   17 1
    14   11   12 1
    15   11   18 1
    16   13   14 1
    17   13   17 1
    18   13   19 1
    19   15   24 1
    20   16   29 1
    21   17   39 1
    22   18   19 1
    23   18   42 1
    24   19   43 1
    25   20   36 1
    26   20   38 1
    27   20   44 1
    28   21   37 1
    29   21   38 1
    30   21   45 1
    31   22   23 1
    32   22   24 1
    33   22   44 1
    34   24   38 1
    35   25   33 1
    36   25   39 1
    37   25   41 1
    38   26   27 1
    39   26   28 1
    40   26   42 1
    41   26   43 1
    42   29   30 1
    43   29   31 1
    44   29   32 1
    45   33   34 1
    46   33   35 1
    47   33   45 1
    48   36   37 1
    49   39   40 1
@<TRIPOS>SUBSTRUCTURE
     1 ML1         1 TEMP              0 ****  ****    0 ROOT
